20
Properties=species:S:1:pos:R:3 pbc="F F F"
Pt      10.06650643      11.89880106      10.95530191
Pt      10.06651581      10.04468962       9.10117755
Pt       9.95391816       8.25912490      10.89797887
Pt       9.95390616      13.68438463       9.15851699
Pt       9.95390154      11.84149122       7.31561424
Pt       9.95390394      10.10202122      12.74089040
Ag       7.70644685       9.92599631      11.07400571
Ag       7.70644073      12.01750539       8.98249715
Ag      12.21247481      11.94321037       9.05678696
Ag       5.82232551       9.97417107       9.03067879
Ag       8.04731609      13.95012445      11.04757678
Ag       5.82232468      11.96932361      11.02582842
Ag      12.21246331      10.00027029      10.99970635
Ag       8.04732183       7.99337624       9.00892380
Ag       8.04731105       9.95242718       7.04987279
Ag       8.04731723      11.99107869      13.00662755
Ag      11.81919105      13.86106336       7.13894229
Ag       6.08856760       8.02735649       7.08386190
Ag       6.08856524      13.91614380      12.97263930
Ag      11.81918172       8.08243945      12.91757270
