20
Properties=species:S:1:pos:R:3 Geometry=T Step:=T 94=T pbc="F F F"
Pt      10.05228549       9.99983423      10.09514864
Pt       8.11373550       8.08834050      10.06897470
Pt       8.16261857      10.03814588       8.12889624
Ag      10.13426070       7.99358766       8.02623711
Ag      12.04922146      10.04345631       8.08642970
Pt       6.23312296       8.21305753       8.16974688
Pt       8.15422824      11.87439793      10.02833086
Ag      10.07228791       6.04348731      10.00399899
Pt       6.27717251      10.03740563      10.00098352
Pt      11.98408968       8.16119154      10.10459325
Ag       8.08096088       6.09227092       8.07577318
Pt       9.99373023      11.91876674       8.20769820
Ag       8.09755502       8.05827130       6.08066068
Pt       9.97551101      10.10471567       6.17736247
Pt       9.99227197       8.09726352      11.91894073
Ag       8.08590622      10.03143004      12.15932877
Ag      11.88672585      12.09153522       6.22324713
Ag       6.01153538       6.24009341       6.22968923
Pt       6.21805559      11.99246295      11.71567554
Pt      11.92297273       6.37830955      11.99610592
