20
Properties=species:S:1:pos:R:3 Geometry=T Step:=T 48=T pbc="F F F"
Ag      10.07148457      10.08797642      10.10390708
Ag       8.06184009       8.07832755      10.10390676
Ag       8.06706833      10.08274460       8.06621302
Ag      10.06641153       8.08340143       8.06721966
Ag      12.06124189      10.07195392       8.10131875
Ag       6.08045004       8.05236119       8.08830552
Ag       8.08446404      12.06725200      10.08274091
Pt      10.09936263       6.13714083      10.06686922
Ag       6.08256376      10.06534731      10.08274296
Pt      12.01266462       8.05044369      10.06687286
Ag       8.07786407       6.08856783       8.10131882
Ag      10.09744745      12.06936584       8.08830272
Ag       8.09415875       8.04247792       6.07424889
Ag      10.10733324      10.05565463       6.07424829
Ag      10.04182668       8.10798335      12.07000252
Pt       8.06823486      10.08157959      12.11765463
Ag      12.08589276      12.01778640       6.12407014
Ag       6.13202853       6.06391630       6.12407202
Ag       6.11946520      12.03035011      12.04339493
Pt      11.98684054       6.16296459      11.84981233
