20
Properties=species:S:1:pos:R:3 Geometry=T Step:=T 69=T pbc="F F F"
Pt      10.06877828      10.07373859      10.14075038
Ag       8.04830128       8.10142672      10.05901073
Ag       8.07652418      10.07794441       8.02452359
Ag      10.05784663       8.10422709       8.05312849
Ag      12.02375463      10.11637676       8.09662099
Ag       6.09231946       8.12920987       8.07957356
Pt       8.15649802      11.90131666      10.13107779
Ag      10.03943949       6.12633579      10.05850756
Pt       6.14288354      10.13251754      10.04049869
Ag      12.05399466       8.06368554      10.04061328
Pt       8.05884586       6.11373596       8.09949452
Ag      10.04526326      12.05090192       8.08605812
Ag       8.07678348       8.08270476       6.07517605
Pt      10.04530994      10.10226463       6.03977411
Pt      10.07023969       8.10134558      12.02544671
Ag       8.04959163       9.97261400      12.13061028
Ag      12.00022020      12.08540109       6.13882162
Pt       6.20374415       6.06640930       6.28582842
Pt       6.21420803      11.99726832      11.84648255
Ag      11.97401497       6.09939009      12.04579121
