55
Properties=species:S:1:pos:R:3 Geometry=T Step:=T 13=T pbc="F F F"
Ag      -0.00000011      -0.00000013      -0.00000010
Ag      -0.00000004       1.34829721       2.18158094
Ag      -0.00000005       1.34829726      -2.18158110
Ag      -0.00000004      -1.34829723       2.18158090
Ag      -0.00000005      -1.34829727      -2.18158103
Ag       1.34829718       2.18158100      -0.00000004
Ag      -1.34829732       2.18158103      -0.00000004
Ag       1.34829715      -2.18158095      -0.00000004
Ag      -1.34829729      -2.18158098      -0.00000005
Ag       2.18158089      -0.00000001       1.34829715
Ag       2.18158094      -0.00000001      -1.34829729
Ag      -2.18158106      -0.00000001       1.34829720
Ag      -2.18158108      -0.00000001      -1.34829733
Pt      -4.39747204      -0.00000001      -2.71778386
Pt       0.00000012       2.71778371       4.39747203
Pt       0.00000008       2.71778387      -4.39747210
Pt       0.00000012      -2.71778375       4.39747196
Pt       0.00000008      -2.71778387      -4.39747189
Pt       2.71778381       4.39747202       0.00000013
Pt      -2.71778378       4.39747213       0.00000010
Pt       2.71778374      -4.39747187       0.00000008
Pt      -2.71778370      -4.39747197       0.00000006
Pt       4.39747194       0.00000001       2.71778373
Pt       4.39747210      -0.00000001      -2.71778372
Pt      -4.39747204       0.00000002       2.71778391
Pt       0.00000003       4.55091238       0.00000011
Pt       0.00000002      -4.55091227       0.00000006
Pt      -4.55091241      -0.00000000      -0.00000001
Pt       4.55091231       0.00000000       0.00000005
Pt       0.00000006      -0.00000007      -4.55091239
Pt       0.00000012      -0.00000002       4.55091231
Pt       1.40631136      -3.68176978       2.27545865
Pt      -1.40631127      -3.68176985       2.27545868
Pt       1.40631133      -3.68176986      -2.27545859
Pt      -1.40631127      -3.68176989      -2.27545862
Pt       3.68176984      -2.27545870      -1.40631124
Pt       3.68176980      -2.27545864       1.40631132
Pt      -3.68176986      -2.27545874      -1.40631135
Pt      -3.68176986      -2.27545874       1.40631137
Pt       1.40631138       3.68176994      -2.27545866
Pt       1.40631137       3.68176979       2.27545874
Pt      -1.40631132       3.68176996      -2.27545870
Pt      -1.40631127       3.68176986       2.27545877
Pt      -2.27545870       1.40631133      -3.68176996
Pt       2.27545877       1.40631135      -3.68176989
Pt      -2.27545866      -1.40631141      -3.68176988
Pt       2.27545873      -1.40631143      -3.68176981
Pt      -3.68176988       2.27545876       1.40631141
Pt      -3.68176992       2.27545876      -1.40631136
Pt      -2.27545863      -1.40631135       3.68176991
Pt       2.27545871      -1.40631130       3.68176977
Pt       2.27545870       1.40631128       3.68176980
Pt      -2.27545862       1.40631132       3.68176995
Pt       3.68176990       2.27545872      -1.40631125
Pt       3.68176982       2.27545867       1.40631136
