55
Properties=species:S:1:pos:R:3 Geometry=T Step:=T 12=T pbc="F F F"
Pt       0.00000006       0.00000006       0.00000006
Pt       0.00000008       1.37488926       2.22462272
Pt       0.00000008       1.37488932      -2.22462265
Pt       0.00000008      -1.37488915       2.22462277
Pt       0.00000008      -1.37488921      -2.22462270
Pt       1.37488926       2.22462272       0.00000008
Pt      -1.37488915       2.22462277       0.00000008
Pt       1.37488932      -2.22462265       0.00000008
Pt      -1.37488921      -2.22462270       0.00000008
Pt       2.22462272       0.00000008       1.37488926
Pt       2.22462277       0.00000008      -1.37488915
Pt      -2.22462265       0.00000008       1.37488932
Pt      -2.22462270       0.00000008      -1.37488921
Ag      -4.62093959       0.00000003      -2.85590308
Ag       0.00000003       2.85590285       4.62093931
Ag       0.00000003       2.85590300      -4.62093948
Ag       0.00000003      -2.85590294       4.62093942
Ag       0.00000003      -2.85590308      -4.62093959
Ag       2.85590285       4.62093931       0.00000003
Ag      -2.85590294       4.62093942       0.00000003
Ag       2.85590300      -4.62093948       0.00000003
Ag      -2.85590308      -4.62093959       0.00000003
Ag       4.62093931       0.00000003       2.85590285
Ag       4.62093942       0.00000003      -2.85590294
Ag      -4.62093948       0.00000003       2.85590300
Ag       0.00000001       4.69587266       0.00000005
Ag       0.00000001      -4.69587285       0.00000005
Ag      -4.69587285       0.00000005       0.00000001
Ag       4.69587266       0.00000005       0.00000001
Ag       0.00000005       0.00000001      -4.69587285
Ag       0.00000005       0.00000001       4.69587266
Ag       1.45110900      -3.79904966       2.34794012
Ag      -1.45110899      -3.79904970       2.34794017
Ag       1.45110903      -3.79904978      -2.34794009
Ag      -1.45110903      -3.79904982      -2.34794014
Ag       3.79904970      -2.34794006      -1.45110896
Ag       3.79904966      -2.34794001       1.45110897
Ag      -3.79904982      -2.34794014      -1.45110903
Ag      -3.79904978      -2.34794009       1.45110903
Ag       1.45110897       3.79904966      -2.34794001
Ag       1.45110893       3.79904954       2.34794004
Ag      -1.45110896       3.79904970      -2.34794006
Ag      -1.45110893       3.79904958       2.34794009
Ag      -2.34794009       1.45110903      -3.79904978
Ag       2.34794012       1.45110900      -3.79904966
Ag      -2.34794014      -1.45110903      -3.79904982
Ag       2.34794017      -1.45110899      -3.79904970
Ag      -3.79904966       2.34794012       1.45110900
Ag      -3.79904970       2.34794017      -1.45110899
Ag      -2.34794006      -1.45110896       3.79904970
Ag       2.34794009      -1.45110893       3.79904958
Ag       2.34794004       1.45110893       3.79904954
Ag      -2.34794001       1.45110897       3.79904966
Ag       3.79904958       2.34794009      -1.45110893
Ag       3.79904954       2.34794004       1.45110893
