55
Properties=species:S:1:pos:R:3 Geometry=T Step:=T 11=T pbc="F F F"
Ag      10.81262403      10.81262403      10.81262403
Ag      10.81262408      12.26358682      13.16054974
Ag      10.81262408      12.26358687       8.46469833
Ag      10.81262408       9.36166104      13.16054971
Ag      10.81262408       9.36166100       8.46469837
Ag      12.26358682      13.16054974      10.81262408
Ag       9.36166104      13.16054971      10.81262408
Ag      12.26358687       8.46469833      10.81262408
Ag       9.36166100       8.46469837      10.81262408
Ag      13.16054974      10.81262408      12.26358682
Ag      13.16054971      10.81262408       9.36166104
Ag       8.46469833      10.81262408      12.26358687
Ag       8.46469837      10.81262408       9.36166100
Ag       6.09566517      10.81262412       7.89736040
Ag      10.81262412      13.72788714      15.52958302
Ag      10.81262412      13.72788736       6.09566510
Ag      10.81262412       7.89736062      15.52958294
Ag      10.81262412       7.89736040       6.09566517
Ag      13.72788714      15.52958302      10.81262412
Ag       7.89736062      15.52958294      10.81262412
Ag      13.72788736       6.09566510      10.81262412
Ag       7.89736040       6.09566517      10.81262412
Ag      15.52958302      10.81262412      13.72788714
Ag      15.52958294      10.81262412       7.89736062
Ag       6.09566510      10.81262412      13.72788736
Ag      10.81262389      15.60720011      10.81262420
Ag      10.81262389       6.01804786      10.81262420
Ag       6.01804786      10.81262420      10.81262389
Ag      15.60720011      10.81262420      10.81262389
Ag      10.81262420      10.81262389       6.01804786
Ag      10.81262420      10.81262389      15.60720011
Ag      12.29409073       6.93401123      13.20970908
Ag       9.33115713       6.93401132      13.20970913
Ag      12.29409068       6.93401109       8.41553915
Ag       9.33115718       6.93401119       8.41553910
Ag      14.69123665       8.41553908       9.33115727
Ag      14.69123674       8.41553913      12.29409059
Ag       6.93401119       8.41553910       9.33115718
Ag       6.93401109       8.41553915      12.29409068
Ag      12.29409059      14.69123674       8.41553913
Ag      12.29409064      14.69123661      13.20970909
Ag       9.33115727      14.69123665       8.41553908
Ag       9.33115723      14.69123652      13.20970914
Ag       8.41553915      12.29409068       6.93401109
Ag      13.20970908      12.29409073       6.93401123
Ag       8.41553910       9.33115718       6.93401119
Ag      13.20970913       9.33115713       6.93401132
Ag       6.93401123      13.20970908      12.29409073
Ag       6.93401132      13.20970913       9.33115713
Ag       8.41553908       9.33115727      14.69123665
Ag      13.20970914       9.33115723      14.69123652
Ag      13.20970909      12.29409064      14.69123661
Ag       8.41553913      12.29409059      14.69123674
Ag      14.69123652      13.20970914       9.33115723
Ag      14.69123661      13.20970909      12.29409064
