55
Properties=species:S:1:pos:R:3 Geometry=T Step:=T 17=T pbc="F F F"
Pt      10.81262392      10.81262383      10.81262375
Pt      10.81262400      12.16244112      12.99669935
Pt      10.81262400      12.16244111       8.62854867
Pt      10.81262400       9.46280682      12.99669931
Pt      10.81262400       9.46280686       8.62854874
Pt      12.16244111      12.99669934      10.81262400
Pt       9.46280683      12.99669932      10.81262400
Pt      12.16244111       8.62854868      10.81262400
Pt       9.46280684       8.62854870      10.81262401
Pt      12.99669933      10.81262399      12.16244112
Pt      12.99669928      10.81262399       9.46280685
Pt       8.62854865      10.81262400      12.16244115
Pt       8.62854872      10.81262400       9.46280682
Pt       6.46176194      10.81262400       8.12362229
Pt      10.81262405      13.50162554      15.16348642
Pt      10.81262404      13.50162544       6.46176185
Pt      10.81262405       8.12362232      15.16348626
Pt      10.81262404       8.12362247       6.46176217
Pt      13.50162557      15.16348644      10.81262402
Pt       8.12362232      15.16348628      10.81262401
Pt      13.50162547       6.46176180      10.81262398
Pt       8.12362239       6.46176188      10.81262397
Pt      15.16348647      10.81262401      13.50162559
Pt      15.16348617      10.81262399       8.12362232
Pt       6.46176158      10.81262402      13.50162563
Pt      10.81262394      15.28893234      10.81262406
Pt      10.81262394       6.33631575      10.81262404
Pt       6.33631568      10.81262406      10.81262391
Pt      15.28893235      10.81262405      10.81262392
Pt      10.81262408      10.81262392       6.33631579
Pt      10.81262409      10.81262393      15.28893232
Pt      12.19587655       7.19122565      13.05077181
Pt       9.42937140       7.19122569      13.05077184
Pt      12.19587650       7.19122566       8.57447630
Pt       9.42937144       7.19122571       8.57447626
Pt      14.43402227       8.57447614       9.42937143
Pt      14.43402236       8.57447616      12.19587648
Pt       7.19122570       8.57447622       9.42937138
Pt       7.19122559       8.57447623      12.19587652
Pt      12.19587650      14.43402237       8.57447617
Pt      12.19587652      14.43402233      13.05077192
Pt       9.42937144      14.43402230       8.57447614
Pt       9.42937142      14.43402228      13.05077195
Pt       8.57447627      12.19587648       7.19122560
Pt      13.05077182      12.19587652       7.19122563
Pt       8.57447626       9.42937143       7.19122569
Pt      13.05077184       9.42937138       7.19122574
Pt       7.19122562      13.05077184      12.19587658
Pt       7.19122570      13.05077185       9.42937133
Pt       8.57447617       9.42937144      14.43402233
Pt      13.05077192       9.42937139      14.43402227
Pt      13.05077189      12.19587652      14.43402234
Pt       8.57447620      12.19587648      14.43402239
Pt      14.43402229      13.05077194       9.42937137
Pt      14.43402236      13.05077192      12.19587655
