108
Properties=species:S:1:pos:R:3 pbc="F F F"
Pt       0.52072012       0.52071992       0.52072006
Pt       0.34011741       2.31518535       2.31518534
Pt       2.31518545       0.34011734       2.31518540
Pt       2.31518543       2.31518539       0.34011744
Pt       0.45373409       0.45373396       4.16022503
Pt       0.45127004       0.45126987       7.94546830
Pt       4.16022511       0.45373409       0.45373415
Pt       7.94546820       0.45126988       0.45126996
Pt       0.45373420       4.16022495       0.45373413
Pt       0.45127014       7.94546829       0.45127006
Pt       0.32643888       2.28978983       6.07653720
Pt       0.45127006       2.31542283       9.80962122
Pt       4.19152649       2.28074811       2.28074803
Pt       7.95448238       2.30640859       2.30640858
Pt       0.32643902       6.07653725       2.28978973
Pt       0.45127008       9.80962103       2.31542272
Pt       2.28978991       0.32643884       6.07653717
Pt       2.31542303       0.45126994       9.80962117
Pt       6.07653716       0.32643881       2.28978989
Pt       9.80962123       0.45126987       2.31542300
Pt       2.28074800       4.19152657       2.28074797
Pt       2.30640844       7.95448253       2.30640845
Pt       2.28074803       2.28074809       4.19152644
Pt       2.30640854       2.30640855       7.95448240
Pt       6.07653716       2.28978992       0.32643889
Pt       9.80962120       2.31542292       0.45126999
Pt       2.28978984       6.07653723       0.32643906
Pt       2.31542283       9.80962095       0.45127008
Pt       0.31093465       4.18234469       4.18234456
Pt       0.34011749       7.94570560       7.94570566
Pt       0.32643901       7.97110124       4.18435372
Pt       0.32643891       4.18435382       7.97110118
Pt       4.18234469       0.31093461       4.18234463
Pt       7.94570549       0.34011724       7.94570550
Pt       4.18435388       0.32643882       7.97110108
Pt       7.97110107       0.32643875       4.18435385
Pt       4.18234465       4.18234473       0.31093477
Pt       7.94570556       7.94570551       0.34011737
Pt       7.97110107       4.18435385       0.32643888
Pt       4.18435377       7.97110113       0.32643905
Pt       0.31093467       6.07854635       6.07854626
Pt       0.52072025       9.74017090       9.74017112
Pt       0.45373416       9.80715692       6.10066606
Pt       0.45373419       6.10066594       9.80715702
Pt       4.18134280       2.24223185       6.07954800
Pt       7.94570547       2.31518557       9.92077379
Pt       4.18435388       2.28978996       9.93445218
Pt       7.98014278       2.28074819       6.06936436
Pt       4.18134273       6.07954818       2.24223170
Pt       7.94570558       9.92077367       2.31518545
Pt       7.98014278       6.06936444       2.28074810
Pt       4.18435376       9.93445200       2.28978979
Pt       2.24223171       4.18134293       6.07954802
Pt       2.31518552       7.94570552       9.92077361
Pt       2.28074802       7.98014294       6.06936440
Pt       2.28978995       4.18435385       9.93445214
Pt       6.07854625       0.31093452       6.07854622
Pt       9.74017099       0.52072013       9.74017103
Pt       6.10066603       0.45373399       9.80715708
Pt       9.80715709       0.45373399       6.10066599
Pt       6.07954798       4.18134294       2.24223171
Pt       9.92077374       7.94570547       2.31518551
Pt       9.93445221       4.18435386       2.28978995
Pt       6.06936437       7.98014287       2.28074804
Pt       2.24223168       6.07954821       4.18134269
Pt       2.31518547       9.92077355       7.94570563
Pt       2.28978980       9.93445200       4.18435374
Pt       2.28074806       6.06936450       7.98014281
Pt       6.07954800       2.24223185       4.18134277
Pt       9.92077379       2.31518559       7.94570547
Pt       6.06936439       2.28074817       7.98014276
Pt       9.93445226       2.28978998       4.18435387
Pt       6.07854624       6.07854630       0.31093474
Pt       9.74017109       9.74017090       0.52072016
Pt       9.80715698       6.10066592       0.45373415
Pt       6.10066607       9.80715688       0.45373411
Pt       4.17452290       4.17452314       4.17452284
Pt       7.95448235       7.95448237       7.95448236
Pt       7.98014278       7.98014283       4.19152649
Pt       4.18134281       4.18134295       8.01865903
Pt       7.98014277       4.19152660       7.98014274
Pt       4.18134273       8.01865919       4.18134272
Pt       4.19152649       7.98014288       7.98014279
Pt       8.01865905       4.18134296       4.18134280
Pt       4.17452292       6.08636801       6.08636780
Pt       7.94546815       9.80962100       9.80962118
Pt       7.97110110       9.93445215       6.07653718
Pt       4.18234472       6.07854628       9.94995632
Pt       7.97110103       6.07653712       9.93445219
Pt       4.18234466       9.94995629       6.07854625
Pt       4.16022512       9.80715685       9.80715699
Pt       8.01865904       6.07954813       6.07954802
Pt       6.08636780       4.17452316       6.08636780
Pt       9.80962109       7.94546797       9.80962113
Pt       9.93445219       7.97110100       6.07653717
Pt       6.07854625       4.18234476       9.94995642
Pt       9.80715703       4.16022504       9.80715704
Pt       6.07954801       8.01865917       6.07954804
Pt       6.07653716       7.97110103       9.93445215
Pt       9.94995643       4.18234477       6.07854622
Pt       6.08636779       6.08636800       4.17452287
Pt       9.80962115       9.80962100       7.94546818
Pt       9.80715708       9.80715694       4.16022507
Pt       6.07954802       6.07954815       8.01865903
Pt       9.93445219       6.07653711       7.97110104
Pt       6.07854627       9.94995634       4.18234460
Pt       6.07653717       9.93445210       7.97110113
Pt       9.94995638       6.07854626       4.18234468
