500
Properties=species:S:1:pos:R:3 pbc="F F F"
Pt       0.81537165       0.81537128       0.81537189
Pt       0.63033727       2.60932652       2.60932674
Pt       2.60932681       0.63033712       2.60932682
Pt       2.60932692       2.60932663       0.63033775
Pt       0.73914225       0.73914204       4.44002406
Pt       0.74646218       0.74646205      15.85300398
Pt       4.44002432       0.73914279       0.73914306
Pt      15.85300354       0.74646219       0.74646267
Pt       0.73914286       4.44002342       0.73914276
Pt       0.74646186      15.85300429       0.74646196
Pt       0.60579699       2.56442077       6.36791678
Pt       0.74646244       2.61660040      17.72314186
Pt       4.48556851       2.56910323       2.56910314
Pt      15.86856403       2.60103992       2.60103980
Pt       0.60579773       6.36791641       2.56442073
Pt       0.74646186      17.72314198       2.61659966
Pt       2.56442107       0.60579698       6.36791668
Pt       2.61660044       0.74646229      17.72314182
Pt       6.36791682       0.60579752       2.56442103
Pt      17.72314160       0.74646216       2.61660070
Pt       2.56910341       4.48556839       2.56910322
Pt       2.60104047      15.86856354       2.60104038
Pt       2.56910319       2.56910315       4.48556822
Pt       2.60104002       2.60103980      15.86856432
Pt       6.36791694       2.56442140       0.60579814
Pt      17.72314139       2.61660036       0.74646293
Pt       2.56442154       6.36791638       0.60579824
Pt       2.61659978      17.72314164       0.74646228
Pt       0.73473306       0.73473285       8.28751146
Pt       0.73732048       0.73732028      12.10193557
Pt       8.28751151       0.73473396       0.73473406
Pt      12.10193547       0.73732114       0.73732127
Pt       0.73473414       8.28751019       0.73473383
Pt       0.73732138      12.10193478       0.73732120
Pt       0.59915896       2.56357448      10.19276092
Pt       0.61510409       2.58645936      13.99280146
Pt       8.28003979       2.54924149       2.54924121
Pt      12.09290644       2.55677594       2.55677573
Pt       0.59915972      10.19275993       2.56357424
Pt       0.61510469      13.99280181       2.58645931
Pt       2.56357492       0.59915893      10.19276075
Pt       2.58645971       0.61510398      13.99280134
Pt      10.19276063       0.59915945       2.56357490
Pt      13.99280130       0.61510396       2.58645980
Pt       2.54924190       8.28003950       2.54924140
Pt       2.55677656      12.09290645       2.55677619
Pt       2.54924133       2.54924112       8.28003976
Pt       2.55677595       2.55677563      12.09290660
Pt      10.19276072       2.56357516       0.59916001
Pt      13.99280131       2.58645963       0.61510457
Pt       2.56357512      10.19275987       0.59916019
Pt       2.58645966      13.99280174       0.61510519
Pt       0.60462125       4.47869180       4.47869132
Pt       0.63033838      15.86027678      15.86027726
Pt       0.61510463      15.88314449       4.47680201
Pt       0.61510434       4.47680272      15.88314453
Pt       4.47869179       0.60462116       4.47869153
Pt      15.86027646       0.63033738      15.86027669
Pt       4.47680289       0.61510421      15.88314437
Pt      15.88314425       0.61510387       4.47680284
Pt       4.47869183       4.47869199       0.60462235
Pt      15.86027691      15.86027655       0.63033882
Pt      15.88314431       4.47680262       0.61510475
Pt       4.47680223      15.88314412       0.61510542
Pt       0.55970137       6.38053280       6.38053269
Pt       0.81537266      17.65423089      17.65423168
Pt       0.73732113      17.73228283       6.36766930
Pt       0.73732116       6.36766897      17.73228309
Pt       4.46858658       2.51205086       6.38073480
Pt      15.86027646       2.60932733      17.83926629
Pt       4.47680294       2.58645969      17.85449949
Pt      15.91282776       2.55677615       6.37669748
Pt       4.46858655       6.38073557       2.51205076
Pt      15.86027672      17.83926504       2.60932745
Pt      15.91282815       6.37669748       2.55677562
Pt       4.47680230      17.85449851       2.58645962
Pt       2.51205088       4.46858662       6.38073482
Pt       2.60932718      15.86027664      17.83926551
Pt       2.55677624      15.91282777       6.37669731
Pt       2.58645996       4.47680285      17.85449951
Pt       6.38053320       0.55970136       6.38053274
Pt      17.65423126       0.81537209      17.65423167
Pt       6.36766884       0.73732105      17.73228288
Pt      17.73228255       0.73732126       6.36766858
Pt       6.38073516       4.46858697       2.51205068
Pt      17.83926535      15.86027650       2.60932737
Pt      17.85449944       4.47680269       2.58645999
Pt       6.37669748      15.91282745       2.55677620
Pt       2.51205119       6.38073552       4.46858570
Pt       2.60932712      17.83926507      15.86027715
Pt       2.58645958      17.85449882       4.47680208
Pt       2.55677612       6.37669740      15.91282830
Pt       6.38073509       2.51205109       4.46858618
Pt      17.83926605       2.60932734      15.86027659
Pt       6.37669760       2.55677601      15.91282803
Pt      17.85449963       2.58645972       4.47680296
Pt       6.38053337       6.38053306       0.55970326
Pt      17.65423100      17.65423060       0.81537333
Pt      17.73228228       6.36766855       0.73732190
Pt       6.36766957      17.73228185       0.73732202
Pt       0.57791647       4.44459940       8.28105021
Pt       0.60579801      15.90518296      12.10168786
Pt       0.59915947      15.90602954       8.27684419
Pt       0.58380978       4.46188726      12.09181703
Pt       8.28105001       0.57791697       4.44459947
Pt      12.10168714       0.60579771      15.90518243
Pt       8.27684332       0.59915963      15.90602887
Pt      12.09181684       0.58381004       4.46188752
Pt       4.44459973       8.28104992       0.57791897
Pt      15.90518248      12.10168732       0.60579888
Pt      15.90602883       8.27684332       0.59916041
Pt       4.46188700      12.09181674       0.58381236
Pt       4.46188784       0.58380985      12.09181673
Pt      15.90602870       0.59915941       8.27684327
Pt      15.90518232       0.60579757      12.10168714
Pt       4.44459994       0.57791654       8.28104998
Pt       0.59915955       8.27684334      15.90602925
Pt       0.58381115      12.09181689       4.46188612
Pt       0.57791765       8.28104991       4.44459862
Pt       0.60579792      12.10168711      15.90518301
Pt       8.28105016       4.44459989       0.57791817
Pt      12.10168772      15.90518240       0.60579890
Pt       8.27684414      15.90602882       0.59916057
Pt      12.09181683       4.46188751       0.58381100
Pt       0.55163256       6.36796585      10.18521502
Pt       0.73914326      17.73046046      14.02958050
Pt       0.73473400      17.73486990      10.18209413
Pt       0.58380989       6.37778706      14.00771663
Pt       8.28162573       2.48100275       6.37037785
Pt      12.10168700       2.56442178      17.86380597
Pt       8.27684321       2.56357527      17.87044401
Pt      12.09316648       2.49048017       6.37643741
Pt       4.45998559      10.18700933       2.50378500
Pt      15.90050083      13.98403515       2.56910303
Pt      15.92036264      10.18956430       2.54924104
Pt       4.47710843      13.99249537       2.53008906
Pt       4.47710945       2.53008822      13.99249478
Pt      15.92036202       2.54924198      10.18956403
Pt      15.90050008       2.56910400      13.98403524
Pt       4.45998605       2.50378473      10.18700920
Pt       0.73473413      10.18209271      17.73487010
Pt       0.58381085      14.00771739       6.37778682
Pt       0.55163319      10.18521439       6.36796567
Pt       0.73914343      14.02957932      17.73046081
Pt       8.28162566       6.37037838       2.48100233
Pt      12.10168771      17.86380493       2.56442171
Pt       8.27684419      17.87044327       2.56357494
Pt      12.09316633       6.37643745       2.49047966
Pt       2.50378505       4.45998555      10.18700930
Pt       2.56910313      15.90050099      13.98403548
Pt       2.54924142      15.92036275      10.18956462
Pt       2.53008860       4.47710888      13.99249484
Pt      10.18521467       0.55163312       6.36796591
Pt      14.02957972       0.73914299      17.73046093
Pt      10.18209263       0.73473396      17.73486997
Pt      14.00771657       0.58381018       6.37778719
Pt       6.37037814       8.28162596       2.48100233
Pt      17.86380521      12.10168735       2.56442161
Pt      17.87044369       8.27684338       2.56357519
Pt       6.37643712      12.09316676       2.49047983
Pt       6.37778742       0.58381017      14.00771637
Pt      17.73486953       0.73473420      10.18209267
Pt      17.73046058       0.73914310      14.02957984
Pt       6.36796647       0.55163293      10.18521457
Pt       2.56357543       8.27684343      17.87044419
Pt       2.49048016      12.09316696       6.37643640
Pt       2.48100277       8.28162583       6.37037724
Pt       2.56442161      12.10168713      17.86380581
Pt      10.18700910       4.45998614       2.50378481
Pt      13.98403530      15.90050054       2.56910320
Pt      10.18956446      15.92036217       2.54924144
Pt      13.99249465       4.47710922       2.53008824
Pt       2.48100263       6.37037801       8.28162544
Pt       2.56442139      17.86380537      12.10168774
Pt       2.56357485      17.87044394       8.27684413
Pt       2.49048012       6.37643718      12.09316655
Pt      10.18700905       2.50378517       4.45998582
Pt      13.98403511       2.56910398      15.90050029
Pt      10.18956401       2.54924195      15.92036227
Pt      13.99249464       2.53008834       4.47710948
Pt       6.36796656      10.18521424       0.55163530
Pt      17.73046013      14.02957973       0.73914411
Pt      17.73486921      10.18209280       0.73473491
Pt       6.37778714      14.00771695       0.58381234
Pt       6.37643773       2.49047993      12.09316642
Pt      17.87044402       2.56357532       8.27684326
Pt      17.86380585       2.56442179      12.10168697
Pt       6.37037837       2.48100251       8.28162550
Pt       2.54924153      10.18956422      15.92036293
Pt       2.53008924      13.99249550       4.47710796
Pt       2.50378558      10.18700933       4.45998455
Pt       2.56910314      13.98403534      15.90050109
Pt      10.18521466       6.36796604       0.55163459
Pt      14.02958027      17.73045985       0.73914423
Pt      10.18209414      17.73486890       0.73473504
Pt      14.00771631       6.37778692       0.58381096
Pt       0.53883403       8.28287813       8.28287860
Pt       0.55970140      12.08907103      12.08907141
Pt       0.55163298      12.10163799       8.28438955
Pt       0.55163264       8.28438918      12.10163834
Pt       8.28287861       0.53883441       8.28287833
Pt      12.08907105       0.55970177      12.08907088
Pt       8.28438947       0.55163320      12.10163775
Pt      12.10163796       0.55163324       8.28438922
Pt       8.28287878       8.28287820       0.53883641
Pt      12.08907094      12.08907095       0.55970311
Pt      12.10163780       8.28438909       0.55163447
Pt       8.28438973      12.10163766       0.55163517
Pt       0.53883399      10.18672538      10.18672605
Pt       0.60462155      13.99091210      13.99091207
Pt       0.57791726      14.02500478      10.18855426
Pt       0.57791674      10.18855383      14.02500447
Pt       8.28038126       2.47088044      10.18922274
Pt      12.08886867       2.51205179      14.00101715
Pt       8.28259473       2.50378540      14.00961797
Pt      12.09922584       2.48100310      10.18797809
Pt       8.28038102      10.18922284       2.47087993
Pt      12.08886841      14.00101731       2.51205073
Pt      12.09922551      10.18797824       2.48100222
Pt       8.28259438      14.00961828       2.50378503
Pt       2.47088037       8.28038097      10.18922276
Pt       2.51205085      12.08886895      14.00101727
Pt       2.48100254      12.09922623      10.18797801
Pt       2.50378519       8.28259450      14.00961816
Pt      10.18672557       0.53883457      10.18672541
Pt      13.99091213       0.60462164      13.99091190
Pt      10.18855389       0.57791724      14.02500412
Pt      14.02500434       0.57791727      10.18855383
Pt      10.18922266       8.28038111       2.47088000
Pt      14.00101693      12.08886886       2.51205056
Pt      14.00961775       8.28259469       2.50378457
Pt      10.18797794      12.09922588       2.48100233
Pt       2.47088028      10.18922290       8.28038065
Pt       2.51205082      14.00101786      12.08886858
Pt       2.50378512      14.00961889       8.28259435
Pt       2.48100266      10.18797828      12.09922583
Pt      10.18922292       2.47088055       8.28038093
Pt      14.00101731       2.51205175      12.08886857
Pt      10.18797823       2.48100310      12.09922565
Pt      14.00961804       2.50378544       8.28259470
Pt      10.18672569      10.18672522       0.53883628
Pt      13.99091182      13.99091211       0.60462258
Pt      14.02500397      10.18855387       0.57791810
Pt      10.18855407      14.02500439       0.57791883
Pt       4.45961367       4.45961459       4.45961309
Pt      15.86856317      15.86856309      15.86856344
Pt      15.90050061      15.90050053       4.48556867
Pt       4.47710957       4.47710904      15.93951562
Pt      15.90050004       4.48556893      15.90050018
Pt       4.47710838      15.93951459       4.47710807
Pt       4.48556878      15.90050090      15.90050099
Pt      15.93951558       4.47710916       4.47710948
Pt       4.43746547       6.37190259       6.37190092
Pt      15.85300327      17.72314115      17.72314149
Pt      15.90518210      17.86380502       6.36791653
Pt       4.46188814       6.37778731      17.88579335
Pt      15.90518222       6.36791665      17.86380544
Pt       4.46188704      17.88579206       6.37778688
Pt       4.44002428      17.73045983      17.73046026
Pt      15.97912383       6.37643730       6.37643741
Pt       6.37190222       4.43746572       6.37190154
Pt      17.72314148      15.85300347      17.72314177
Pt      17.86380523      15.90518230       6.36791645
Pt       6.37778738       4.46188775      17.88579310
Pt      17.73046037       4.44002368      17.73046050
Pt       6.37643704      15.97912384       6.37643666
Pt       6.36791650      15.90518237      17.86380519
Pt      17.88579305       4.46188741       6.37778729
Pt       6.37190184       6.37190292       4.43746425
Pt      17.72314123      17.72314114      15.85300359
Pt      17.73045975      17.73045971       4.44002417
Pt       6.37643794       6.37643750      15.97912404
Pt      17.86380527       6.36791664      15.90518225
Pt       6.37778721      17.88579174       4.46188666
Pt       6.36791671      17.86380488      15.90518255
Pt      17.88579322       6.37778700       4.46188780
Pt       4.44141191       4.44141155       8.28497698
Pt      15.91282742      15.91282723      12.09290637
Pt      15.92036215      15.92036212       8.28003938
Pt       4.45025804       4.45025712      12.09010225
Pt      15.95755247       4.46858702      12.08886858
Pt       4.45998550      15.96581903       8.28259434
Pt       4.46858674      15.95755348      12.08886852
Pt      15.96581853       4.45998588       8.28259468
Pt       8.28497700       4.44141222       4.44141128
Pt      12.09290624      15.91282728      15.91282761
Pt       8.28003939      15.92036231      15.92036255
Pt      12.09010212       4.45025772       4.45025783
Pt      12.08886840      15.95755289       4.46858660
Pt       8.28259471       4.45998621      15.96581874
Pt      12.08886862       4.46858731      15.95755256
Pt       8.28259432      15.96581847       4.45998519
Pt       4.44141125       8.28497815       4.44140983
Pt      15.91282729      12.09290611      15.91282743
Pt      15.92036183       8.28003969      15.92036202
Pt       4.45025670      12.09010310       4.45025555
Pt       4.46858721      12.08886890      15.95755342
Pt      15.96581898       8.28259472       4.45998599
Pt      15.95755304      12.08886893       4.46858681
Pt       4.45998657       8.28259458      15.96581927
Pt       4.42759402       6.36793740      10.18668061
Pt      15.88314387      17.85449879      13.99280143
Pt      15.90602850      17.87044350      10.19276006
Pt       4.45025838       6.37950122      14.01934641
Pt      15.95755238       6.38073573      14.00101739
Pt       4.44459982      17.89168550      10.18855404
Pt       4.47869223      17.86498137      13.99091185
Pt      15.98860095       6.37037822      10.18797819
Pt       8.27857322       6.35874039       6.35873939
Pt      12.10193469      17.73228184      17.73228200
Pt       8.28751066      17.73486887      17.73486914
Pt      12.10843594       6.36116778       6.36116781
Pt      12.08907113      17.90990070       6.38053299
Pt       8.28438924       6.36796636      17.91796963
Pt      12.08907070       6.38053315      17.90990091
Pt       8.28438986      17.91796909       6.36796593
Pt       4.42759328      10.18668156       6.36793582
Pt      15.88314396      13.99280129      17.85449910
Pt      15.90602859      10.19276018      17.87044346
Pt       4.45025667      14.01934753       6.37949997
Pt       4.47869230      13.99091187      17.86498176
Pt      15.98860121      10.18797832       6.37037805
Pt      15.95755287      14.00101741       6.38073520
Pt       4.44460038      10.18855389      17.89168639
Pt       6.36793809       4.42759330      10.18668079
Pt      17.85449910      15.88314367      13.99280141
Pt      17.87044374      15.90602858      10.19275992
Pt       6.37950207       4.45025750      14.01934635
Pt      17.86498149       4.47869215      13.99091187
Pt       6.37037815      15.98860157      10.18797799
Pt       6.38073535      15.95755326      14.00101715
Pt      17.89168582       4.44459975      10.18855367
Pt      10.18668087       4.42759372       6.36793749
Pt      13.99280131      15.88314369      17.85449911
Pt      10.19275987      15.90602855      17.87044367
Pt      14.01934641       4.45025742       6.37950196
Pt      14.00101715      15.95755289       6.38073524
Pt      10.18855364       4.44460006      17.89168593
Pt      13.99091204       4.47869228      17.86498160
Pt      10.18797798      15.98860114       6.37037774
Pt       6.35874010       8.27857372       6.35873874
Pt      17.73228193      12.10193506      17.73228215
Pt      17.73486905       8.28751049      17.73486923
Pt       6.36116737      12.10843683       6.36116623
Pt       6.38053320      12.08907084      17.90990128
Pt      17.91796991       8.28438918       6.36796600
Pt      17.90990122      12.08907115       6.38053293
Pt       6.36796644       8.28438945      17.91796984
Pt       6.35874053       6.35874021       8.27857272
Pt      17.73228166      17.73228170      12.10193475
Pt      17.73486860      17.73486866       8.28751044
Pt       6.36116861       6.36116773      12.10843601
Pt      17.90990100       6.38053298      12.08907068
Pt       6.36796656      17.91796926       8.28438944
Pt       6.38053343      17.90990082      12.08907097
Pt      17.91796977       6.36796598       8.28438914
Pt      10.18668040       6.36793793       4.42759308
Pt      13.99280137      17.85449868      15.88314393
Pt      10.19276015      17.87044334      15.90602873
Pt      14.01934610       6.37950143       4.45025787
Pt      13.99091189      17.86498115       4.47869225
Pt      10.18797823       6.37037850      15.98860108
Pt      14.00101727       6.38073579      15.95755250
Pt      10.18855413      17.89168507       4.44459948
Pt       6.36793709      10.18668150       4.42759177
Pt      17.85449895      13.99280124      15.88314405
Pt      17.87044331      10.19276012      15.90602875
Pt       6.37950040      14.01934714       4.45025601
Pt       6.38073536      14.00101731      15.95755321
Pt      17.89168608      10.18855398       4.44459998
Pt      17.86498154      13.99091213       4.47869235
Pt       6.37037873      10.18797822      15.98860156
Pt       4.41793348       8.28117512       8.28117395
Pt      15.97912362      12.09316660      12.09316683
Pt      15.98860112      12.09922600       8.28162564
Pt       4.42759429       8.28292279      12.10166614
Pt      15.98860089       8.28162588      12.09922598
Pt       4.42759331      12.10166721       8.28292159
Pt       4.43746596      12.09770241      12.09770121
Pt      15.99872337       8.28038103       8.28038098
Pt       8.28117519       4.41793329       8.28117478
Pt      12.09316684      15.97912348      12.09316676
Pt       8.28162581      15.98860130      12.09922580
Pt      12.10166647       4.42759361       8.28292306
Pt      12.09922585      15.98860110       8.28162564
Pt       8.28292328       4.42759360      12.10166619
Pt      12.09770203       4.43746598      12.09770166
Pt       8.28038107      15.99872365       8.28038081
Pt       8.28117443       8.28117536       4.41793215
Pt      12.09316680      12.09316634      15.97912369
Pt      12.09922590       8.28162592      15.98860102
Pt       8.28292201      12.10166675       4.42759223
Pt       8.28162597      12.09922570      15.98860138
Pt      12.10166572       8.28292295       4.42759334
Pt      12.09770096      12.09770211       4.43746528
Pt       8.28038141       8.28038113      15.99872362
Pt       4.41793367      10.18842928      10.18842828
Pt      15.93951484      13.99249454      13.99249515
Pt      15.96581858      14.00961813      10.18700922
Pt       4.44141268      10.18462652      14.02819217
Pt      15.96581826      10.18700917      14.00961842
Pt       4.44141147      14.02819339      10.18462553
Pt       4.45961443      14.00999046      14.00998939
Pt      15.99872336      10.18922288      10.18922289
Pt       8.27629434       6.35344335      10.19330984
Pt      12.09181707      17.88579209      14.00771668
Pt       8.28105021      17.89168530      14.02500424
Pt      12.11086408       6.35874022      10.19103076
Pt      12.10163807      17.91796921      10.18521446
Pt       8.28292352       6.36793783      14.04201058
Pt      12.09770216       6.37190286      14.03213866
Pt       8.28287883      17.93076791      10.18672557
Pt       8.27629374      10.19331013       6.35344224
Pt      12.09181676      14.00771656      17.88579233
Pt      12.10163759      10.18521445      17.91796902
Pt       8.28292215      14.04201110       6.36793657
Pt       8.28104981      14.02500406      17.89168561
Pt      12.11086348      10.19103064       6.35873995
Pt      12.09770135      14.03213889       6.37190206
Pt       8.28287825      10.18672539      17.93076810
Pt       6.35344397       8.27629395      10.19330957
Pt      17.88579201      12.09181677      14.00771678
Pt      17.91796947      12.10163792      10.18521418
Pt       6.36793862       8.28292284      14.04201061
Pt      17.89168508       8.28104997      14.02500436
Pt       6.35874041      12.11086445      10.19102993
Pt       6.37190304      12.09770197      14.03213845
Pt      17.93076821       8.28287823      10.18672513
Pt      10.18842913       4.41793338      10.18842887
Pt      13.99249519      15.93951437      13.99249511
Pt      10.18700927      15.96581847      14.00961817
Pt      14.02819244       4.44141188      10.18462660
Pt      14.00961829      15.96581839      10.18700930
Pt      10.18462665       4.44141234      14.02819210
Pt      14.00999006       4.45961498      14.00998976
Pt      10.18922287      15.99872345      10.18922277
Pt      10.19330963       8.27629394       6.35344276
Pt      14.00771679      12.09181679      17.88579199
Pt      14.02500430       8.28105004      17.89168508
Pt      10.19103008      12.11086422       6.35873939
Pt      10.18521424      12.10163770      17.91796928
Pt      14.04201027       8.28292277       6.36793777
Pt      14.03213825      12.09770220       6.37190243
Pt      10.18672514       8.28287840      17.93076789
Pt       6.35344359      10.19331020       8.27629299
Pt      17.88579234      14.00771677      12.09181667
Pt      17.89168556      14.02500445       8.28104977
Pt       6.35874095      10.19103071      12.11086367
Pt      17.91796925      10.18521441      12.10163758
Pt       6.36793721      14.04201142       8.28292187
Pt       6.37190242      14.03213915      12.09770126
Pt      17.93076836      10.18672543       8.28287804
Pt      10.19331003       6.35344336       8.27629377
Pt      14.00771689      17.88579206      12.09181685
Pt      10.18521475      17.91796923      12.10163785
Pt      14.04201059       6.36793750       8.28292323
Pt      14.02500434      17.89168522       8.28104999
Pt      10.19103091       6.35874035      12.11086387
Pt      14.03213885       6.37190262      12.09770206
Pt      10.18672588      17.93076790       8.28287834
Pt      10.18842816      10.18842910       4.41793252
Pt      13.99249513      13.99249447      15.93951488
Pt      14.00961822      10.18700915      15.96581841
Pt      10.18462539      14.02819260       4.44141102
Pt      10.18700921      14.00961778      15.96581878
Pt      14.02819165      10.18462665       4.44141195
Pt      14.00998941      14.00999017       4.45961434
Pt      10.18922303      10.18922272      15.99872354
Pt       8.27564607       8.27564575       8.27564527
Pt      12.10843686      12.10843629      12.10843663
Pt      12.11086396      12.11086418       8.27857338
Pt       8.27629459       8.27629390      12.11616065
Pt      12.11086431       8.27857345      12.11086420
Pt       8.27629399      12.11616104       8.27629326
Pt       8.27857391      12.11086409      12.11086383
Pt      12.11616068       8.27629377       8.27629400
Pt       8.27564626      10.19395811      10.19395790
Pt      12.09010323      14.01934617      14.01934686
Pt      12.10166672      14.04201072      10.18668127
Pt       8.28117583      10.18842885      14.05167095
Pt      12.10166705      10.18668100      14.04201095
Pt       8.28117494      14.05167125      10.18842858
Pt       8.28497791      14.02819228      14.02819227
Pt      12.11616097      10.19330993      10.19331026
Pt      10.19395836       8.27564568      10.19395811
Pt      14.01934721      12.09010234      14.01934710
Pt      14.04201091      12.10166665      10.18668159
Pt      10.18842953       8.28117510      14.05167103
Pt      14.02819273       8.28497791      14.02819282
Pt      10.19331022      12.11616085      10.19330991
Pt      10.18668179      12.10166623      14.04201080
Pt      14.05167103       8.28117497      10.18842941
Pt      10.19395818      10.19395806       8.27564545
Pt      14.01934720      14.01934649      12.09010304
Pt      14.02819249      14.02819261       8.28497780
Pt      10.19331050      10.19330989      12.11616084
Pt      14.04201101      10.18668114      12.10166699
Pt      10.18842875      14.05167114       8.28117460
Pt      10.18668142      14.04201061      12.10166648
Pt      14.05167082      10.18842901       8.28117528
