666
Properties=species:S:1:pos:R:3 pbc="F F F"
Pt       0.88789065       0.88789114       0.88789170
Pt       0.80935407       0.80935448       4.51153835
Pt       0.80356435       0.80356467       8.35539774
Pt       0.80356450       0.80356470      12.16638425
Pt       0.80935446       0.80935468      16.01024347
Pt       0.88789136       0.88789166      19.63388988
Pt       0.80935418       4.51153792       0.80935520
Pt       0.67573867       4.55200671       4.55200676
Pt       0.64557871       4.51713804       8.35034429
Pt       0.64557863       4.51713802      12.17143719
Pt       0.67573857       4.55200681      15.96977476
Pt       0.80935453       4.51153814      19.71242663
Pt       0.80356466       8.35539739       0.80356557
Pt       0.64557907       8.35034419       4.51713786
Pt       0.60235940       8.35181186       8.35181175
Pt       0.60235923       8.35181192      12.16996951
Pt       0.64557883       8.35034429      16.00464348
Pt       0.80356487       8.35539744      19.71821617
Pt       0.80356464      12.16638410       0.80356545
Pt       0.64557884      12.17143696       4.51713787
Pt       0.60235927      12.16996938       8.35181178
Pt       0.60235929      12.16996947      12.16996960
Pt       0.64557902      12.17143705      16.00464346
Pt       0.80356507      12.16638387      19.71821596
Pt       0.80935424      16.01024365       0.80935521
Pt       0.67573847      15.96977464       4.55200680
Pt       0.64557864      16.00464333       8.35034421
Pt       0.64557871      16.00464330      12.17143723
Pt       0.67573878      15.96977444      15.96977476
Pt       0.80935475      16.01024302      19.71242640
Pt       0.88789110      19.63389015       0.88789246
Pt       0.80935446      19.71242669       4.51153837
Pt       0.80356481      19.71821636       8.35539743
Pt       0.80356479      19.71821637      12.16638399
Pt       0.80935455      19.71242654      16.01024331
Pt       0.88789141      19.63388966      19.63388982
Pt       4.51153727       0.80935414       0.80935440
Pt       4.55200605       0.67573824       4.55200662
Pt       4.51713755       0.64557833       8.35034433
Pt       4.51713770       0.64557842      12.17143739
Pt       4.55200647       0.67573861      15.96977500
Pt       4.51153792       0.80935479      19.71242684
Pt       4.55200574       4.55200645       0.67573869
Pt       4.53050590       4.53050651       4.53050635
Pt       4.50967719       4.50967745       8.35818360
Pt       4.50967734       4.50967741      12.16359750
Pt       4.53050627       4.53050651      15.99127500
Pt       4.55200642       4.55200669      19.84604283
Pt       4.51713691       8.35034410       0.64557883
Pt       4.50967683       8.35818363       4.50967709
Pt       4.48100389       8.35194177       8.35194148
Pt       4.48100399       8.35194182      12.16983934
Pt       4.50967710       8.35818376      16.01210407
Pt       4.51713756       8.35034421      19.87620270
Pt       4.51713698      12.17143726       0.64557862
Pt       4.50967691      12.16359734       4.50967715
Pt       4.48100390      12.16983935       8.35194155
Pt       4.48100394      12.16983947      12.16983944
Pt       4.50967702      12.16359753      16.01210407
Pt       4.51713753      12.17143708      19.87620253
Pt       4.55200588      15.96977516       0.67573865
Pt       4.53050606      15.99127491       4.53050646
Pt       4.50967727      16.01210391       8.35818359
Pt       4.50967728      16.01210386      12.16359754
Pt       4.53050610      15.99127468      15.99127498
Pt       4.55200632      15.96977447      19.84604278
Pt       4.51153756      19.71242693       0.80935516
Pt       4.55200637      19.84604266       4.55200678
Pt       4.51713778      19.87620257       8.35034406
Pt       4.51713781      19.87620278      12.17143713
Pt       4.55200645      19.84604292      15.96977479
Pt       4.51153789      19.71242671      19.71242695
Pt       8.35539701       0.80356416       0.80356437
Pt       8.35034400       0.64557827       4.51713776
Pt       8.35181174       0.60235888       8.35181187
Pt       8.35181170       0.60235888      12.16996971
Pt       8.35034399       0.64557857      16.00464376
Pt       8.35539731       0.80356494      19.71821661
Pt       8.35034388       4.51713748       0.64557836
Pt       8.35818365       4.50967732       4.50967731
Pt       8.35194193       4.48100403       8.35194167
Pt       8.35194188       4.48100402      12.16983922
Pt       8.35818357       4.50967737      16.01210389
Pt       8.35034407       4.51713778      19.87620289
Pt       8.35181149       8.35181170       0.60235870
Pt       8.35194175       8.35194176       4.48100386
Pt       8.34263833       8.34263814       8.34263785
Pt       8.34263832       8.34263818      12.17914276
Pt       8.35194174       8.35194178      16.04077714
Pt       8.35181172       8.35181175      19.91942256
Pt       8.35181148      12.16996987       0.60235854
Pt       8.35194176      12.16983940       4.48100389
Pt       8.34263835      12.17914311       8.34263789
Pt       8.34263834      12.17914322      12.17914284
Pt       8.35194173      12.16983952      16.04077711
Pt       8.35181169      12.16996961      19.91942246
Pt       8.35034389      16.00464407       0.64557838
Pt       8.35818361      16.01210400       4.50967742
Pt       8.35194193      16.04077724       8.35194163
Pt       8.35194199      16.04077722      12.16983925
Pt       8.35818369      16.01210385      16.01210382
Pt       8.35034412      16.00464337      19.87620296
Pt       8.35539714      19.71821675       0.80356524
Pt       8.35034402      19.87620257       4.51713794
Pt       8.35181183      19.91942197       8.35181160
Pt       8.35181192      19.91942222      12.16996943
Pt       8.35034420      19.87620295      16.00464348
Pt       8.35539735      19.71821660      19.71821679
Pt      12.16638396       0.80356421       0.80356458
Pt      12.17143710       0.64557849       4.51713777
Pt      12.16996946       0.60235908       8.35181180
Pt      12.16996942       0.60235892      12.16996968
Pt      12.17143700       0.64557851      16.00464373
Pt      12.16638391       0.80356496      19.71821657
Pt      12.17143723       4.51713735       0.64557853
Pt      12.16359763       4.50967715       4.50967735
Pt      12.16983946       4.48100391       8.35194164
Pt      12.16983942       4.48100401      12.16983914
Pt      12.16359750       4.50967746      16.01210381
Pt      12.17143712       4.51713788      19.87620277
Pt      12.16996976       8.35181169       0.60235886
Pt      12.16983965       8.35194177       4.48100394
Pt      12.17914323       8.34263817       8.34263786
Pt      12.17914323       8.34263823      12.17914271
Pt      12.16983961       8.35194182      16.04077706
Pt      12.16996966       8.35181175      19.91942232
Pt      12.16996980      12.16996990       0.60235877
Pt      12.16983972      12.16983942       4.48100397
Pt      12.17914328      12.17914313       8.34263790
Pt      12.17914325      12.17914324      12.17914280
Pt      12.16983959      12.16983953      16.04077702
Pt      12.16996962      12.16996959      19.91942225
Pt      12.17143730      16.00464402       0.64557848
Pt      12.16359768      16.01210390       4.50967749
Pt      12.16983952      16.04077716       8.35194170
Pt      12.16983951      16.04077718      12.16983926
Pt      12.16359761      16.01210385      16.01210375
Pt      12.17143716      16.00464334      19.87620274
Pt      12.16638393      19.71821690       0.80356517
Pt      12.17143710      19.87620269       4.51713799
Pt      12.16996946      19.91942195       8.35181167
Pt      12.16996948      19.91942199      12.16996948
Pt      12.17143712      19.87620267      16.00464344
Pt      12.16638394      19.71821642      19.71821663
Pt      16.01024357       0.80935401       0.80935447
Pt      15.96977485       0.67573831       4.55200652
Pt      16.00464349       0.64557839       8.35034418
Pt      16.00464346       0.64557831      12.17143739
Pt      15.96977461       0.67573842      15.96977508
Pt      16.01024308       0.80935481      19.71242695
Pt      15.96977505       4.55200616       0.67573854
Pt      15.99127493       4.53050619       4.53050635
Pt      16.01210377       4.50967720       8.35818356
Pt      16.01210377       4.50967739      12.16359740
Pt      15.99127481       4.53050666      15.99127492
Pt      15.96977454       4.55200684      19.84604273
Pt      16.00464386       8.35034418       0.64557866
Pt      16.01210400       8.35818378       4.50967716
Pt      16.04077704       8.35194188       8.35194152
Pt      16.04077702       8.35194189      12.16983928
Pt      16.01210383       8.35818376      16.01210396
Pt      16.00464335       8.35034419      19.87620244
Pt      16.00464382      12.17143743       0.64557874
Pt      16.01210402      12.16359752       4.50967718
Pt      16.04077697      12.16983947       8.35194149
Pt      16.04077684      12.16983949      12.16983928
Pt      16.01210363      12.16359748      16.01210390
Pt      16.00464320      12.17143707      19.87620251
Pt      15.96977496      15.96977511       0.67573860
Pt      15.99127496      15.99127476       4.53050647
Pt      16.01210364      16.01210381       8.35818360
Pt      16.01210345      16.01210382      12.16359747
Pt      15.99127448      15.99127473      15.99127482
Pt      15.96977438      15.96977450      19.84604278
Pt      16.01024332      19.71242725       0.80935482
Pt      15.96977470      19.84604304       4.55200676
Pt      16.00464323      19.87620281       8.35034418
Pt      16.00464309      19.87620273      12.17143724
Pt      15.96977438      19.84604280      15.96977479
Pt      16.01024302      19.71242658      19.71242689
Pt      19.63389077       0.88789070       0.88789129
Pt      19.71242737       0.80935392       4.51153805
Pt      19.71821706       0.80356410       8.35539754
Pt      19.71821694       0.80356422      12.16638457
Pt      19.71242689       0.80935437      16.01024398
Pt      19.63388951       0.88789174      19.63389024
Pt      19.71242738       4.51153766       0.80935434
Pt      19.84604310       4.55200636       4.55200648
Pt      19.87620302       4.51713756       8.35034418
Pt      19.87620302       4.51713769      12.17143745
Pt      19.84604279       4.55200673      15.96977516
Pt      19.71242633       4.51153815      19.71242692
Pt      19.71821686       8.35539741       0.80356463
Pt      19.87620271       8.35034431       4.51713755
Pt      19.91942235       8.35181191       8.35181165
Pt      19.91942240       8.35181189      12.16996976
Pt      19.87620251       8.35034422      16.00464390
Pt      19.71821592       8.35539738      19.71821644
Pt      19.71821662      12.16638438       0.80356476
Pt      19.87620254      12.17143730       4.51713756
Pt      19.91942225      12.16996970       8.35181159
Pt      19.91942237      12.16996964      12.16996970
Pt      19.87620258      12.17143710      16.00464381
Pt      19.71821600      12.16638390      19.71821657
Pt      19.71242701      16.01024378       0.80935451
Pt      19.84604298      15.96977481       4.55200653
Pt      19.87620296      16.00464355       8.35034412
Pt      19.87620296      16.00464345      12.17143734
Pt      19.84604287      15.96977452      15.96977496
Pt      19.71242651      16.01024300      19.71242703
Pt      19.63389020      19.63389050       0.88789160
Pt      19.71242718      19.71242732       4.51153814
Pt      19.71821689      19.71821704       8.35539746
Pt      19.71821679      19.71821690      12.16638428
Pt      19.71242692      19.71242692      16.01024356
Pt      19.63388984      19.63388968      19.63389011
Pt       0.70309073       2.68231182       2.68231219
Pt       0.67642589       2.63567358       6.43826497
Pt       0.66526675       2.63236422      10.26089087
Pt       0.67642601       2.63567361      14.08351676
Pt       0.70309112       2.68231209      17.83946947
Pt       0.67642613       6.43826473       2.63567379
Pt       0.62863985       6.45124317       6.45124304
Pt       0.61390105       6.43159471      10.26089065
Pt       0.62863957       6.45124319      14.07053833
Pt       0.67642615       6.43826483      17.88610783
Pt       0.66526697      10.26089059       2.63236440
Pt       0.61390127      10.26089055       6.43159448
Pt       0.59537599      10.26089064      10.26089063
Pt       0.61390114      10.26089071      14.09018682
Pt       0.66526718      10.26089067      17.88941708
Pt       0.67642587      14.08351665       2.63567383
Pt       0.62863956      14.07053814       6.45124303
Pt       0.61390099      14.09018666      10.26089072
Pt       0.62863977      14.07053817      14.07053841
Pt       0.67642644      14.08351641      17.88610770
Pt       0.70309085      17.83946959       2.68231251
Pt       0.67642611      17.88610779       6.43826485
Pt       0.66526697      17.88941712      10.26089068
Pt       0.67642618      17.88610765      14.08351667
Pt       0.70309123      17.83946918      17.83946942
Pt       4.55712163       2.64072979       2.64072989
Pt       4.53922300       2.58317019       6.45263264
Pt       4.52441257       2.56690329      10.26089071
Pt       4.53922328       2.58317016      14.06914884
Pt       4.55712212       2.64072998      17.88105163
Pt       4.53922274       6.45263259       2.58317012
Pt       4.50665215       6.44249177       6.44249148
Pt       4.48833207       6.43359684      10.26089040
Pt       4.50665239       6.44249174      14.07928960
Pt       4.53922316       6.45263267      17.93861136
Pt       4.52441211      10.26089049       2.56690320
Pt       4.48833179      10.26089045       6.43359648
Pt       4.47022051      10.26089059      10.26089038
Pt       4.48833191      10.26089067      14.08818455
Pt       4.52441240      10.26089066      17.95487817
Pt       4.53922286      14.06914876       2.58317016
Pt       4.50665223      14.07928947       6.44249154
Pt       4.48833204      14.08818445      10.26089052
Pt       4.50665227      14.07928951      14.07928969
Pt       4.53922307      14.06914854      17.93861128
Pt       4.55712187      17.88105165       2.64073022
Pt       4.53922321      17.93861125       6.45263263
Pt       4.52441266      17.95487812      10.26089053
Pt       4.53922323      17.93861118      14.06914871
Pt       4.55712204      17.88105135      17.88105158
Pt       8.35071985       2.61810483       2.61810490
Pt       8.35485272       2.54711145       6.44044873
Pt       8.35031152       2.52728296      10.26089062
Pt       8.35485265       2.54711141      14.08133260
Pt       8.35071992       2.61810506      17.90367643
Pt       8.35485256       6.44044864       2.54711130
Pt       8.35071734       6.42583584       6.42583570
Pt       8.34544409       6.41496564      10.26089029
Pt       8.35071731       6.42583581      14.09594522
Pt       8.35485263       6.44044870      17.97466997
Pt       8.35031132      10.26089062       2.52728272
Pt       8.34544398      10.26089055       6.41496542
Pt       8.34005571      10.26089066      10.26089025
Pt       8.34544396      10.26089071      14.10681541
Pt       8.35031138      10.26089067      17.99449839
Pt       8.35485257      14.08133276       2.54711135
Pt       8.35071735      14.09594543       6.42583573
Pt       8.34544413      14.10681568      10.26089038
Pt       8.35071736      14.09594550      14.09594529
Pt       8.35485265      14.08133255      17.97466988
Pt       8.35071986      17.90367647       2.61810527
Pt       8.35485267      17.97466984       6.44044870
Pt       8.35031157      17.99449830      10.26089043
Pt       8.35485281      17.97466985      14.08133246
Pt       8.35072004      17.90367629      17.90367641
Pt      12.17106127       2.61810471       2.61810498
Pt      12.16692858       2.54711132       6.44044873
Pt      12.17146979       2.52728285      10.26089054
Pt      12.16692846       2.54711140      14.08133253
Pt      12.17106111       2.61810513      17.90367632
Pt      12.16692867       6.44044856       2.54711139
Pt      12.17106406       6.42583577       6.42583574
Pt      12.17633740       6.41496563      10.26089025
Pt      12.17106403       6.42583587      14.09594517
Pt      12.16692857       6.44044876      17.97466984
Pt      12.17147004      10.26089067       2.52728283
Pt      12.17633757      10.26089061       6.41496547
Pt      12.18172592      10.26089071      10.26089022
Pt      12.17633753      10.26089074      14.10681536
Pt      12.17146990      10.26089065      17.99449825
Pt      12.16692875      14.08133273       2.54711148
Pt      12.17106418      14.09594539       6.42583578
Pt      12.17633747      14.10681566      10.26089038
Pt      12.17106409      14.09594551      14.09594524
Pt      12.16692856      14.08133256      17.97466973
Pt      12.17106124      17.90367640       2.61810532
Pt      12.16692852      17.97466971       6.44044876
Pt      12.17146976      17.99449814      10.26089049
Pt      12.16692853      17.97466970      14.08133247
Pt      12.17106117      17.90367621      17.90367631
Pt      15.96465931       2.64072946       2.64072985
Pt      15.98255798       2.58316981       6.45263259
Pt      15.99736857       2.56690297      10.26089059
Pt      15.98255788       2.58317006      14.06914878
Pt      15.96465894       2.64073008      17.88105154
Pt      15.98255813       6.45263248       2.58317006
Pt      16.01512871       6.44249170       6.44249155
Pt      16.03344897       6.43359683      10.26089038
Pt      16.01512868       6.44249183      14.07928954
Pt      15.98255784       6.45263274      17.93861119
Pt      15.99736881      10.26089072       2.56690320
Pt      16.03344908      10.26089069       6.43359653
Pt      16.05156040      10.26089070      10.26089030
Pt      16.03344894      10.26089066      14.08818443
Pt      15.99736841      10.26089058      17.95487799
Pt      15.98255813      14.06914877       2.58317019
Pt      16.01512869      14.07928947       6.44249154
Pt      16.03344876      14.08818444      10.26089040
Pt      16.01512837      14.07928953      14.07928953
Pt      15.98255758      14.06914858      17.93861112
Pt      15.96465921      17.88105157       2.64073014
Pt      15.98255786      17.93861111       6.45263264
Pt      15.99736828      17.95487795      10.26089060
Pt      15.98255754      17.93861106      14.06914872
Pt      15.96465874      17.88105131      17.88105149
Pt      19.81869072       2.68231138       2.68231182
Pt      19.84535559       2.63567293       6.43826472
Pt      19.85651473       2.63236360      10.26089089
Pt      19.84535544       2.63567328      14.08351715
Pt      19.81869006       2.68231207      17.83946981
Pt      19.84535557       6.43826460       2.63567323
Pt      19.89314201       6.45124297       6.45124286
Pt      19.90788071       6.43159448      10.26089074
Pt      19.89314194       6.45124306      14.07053875
Pt      19.84535494       6.43826475      17.88610814
Pt      19.85651443      10.26089087       2.63236387
Pt      19.90788033      10.26089085       6.43159425
Pt      19.92640567      10.26089083      10.26089062
Pt      19.90788045      10.26089075      14.09018718
Pt      19.85651409      10.26089062      17.88941742
Pt      19.84535532      14.08351688       2.63567336
Pt      19.89314184      14.07053843       6.45124280
Pt      19.90788060      14.09018691      10.26089066
Pt      19.89314193      14.07053830      14.07053864
Pt      19.84535508      14.08351649      17.88610803
Pt      19.81869058      17.83946972       2.68231200
Pt      19.84535560      17.88610804       6.43826468
Pt      19.85651475      17.88941732      10.26089079
Pt      19.84535547      17.88610778      14.08351693
Pt      19.81869026      17.83946917      17.83946959
Pt       2.68231119       0.70309082       2.68231201
Pt       2.63567299       0.67642588       6.43826492
Pt       2.63236385       0.66526672      10.26089092
Pt       2.63567334       0.67642605      14.08351691
Pt       2.68231179       0.70309131      17.83946959
Pt       2.64072935       4.55712223       2.64073003
Pt       2.58316991       4.53922349       6.45263262
Pt       2.56690323       4.52441281      10.26089063
Pt       2.58317009       4.53922349      14.06914875
Pt       2.64072974       4.55712239      17.88105156
Pt       2.61810460       8.35071999       2.61810512
Pt       2.54711134       8.35485270       6.44044856
Pt       2.52728302       8.35031151      10.26089051
Pt       2.54711142       8.35485282      14.08133261
Pt       2.61810485       8.35072014      17.90367637
Pt       2.61810467      12.17106115       2.61810516
Pt       2.54711132      12.16692837       6.44044861
Pt       2.52728297      12.17146975      10.26089059
Pt       2.54711139      12.16692852      14.08133267
Pt       2.61810486      12.17106113      17.90367630
Pt       2.64072949      15.96465924       2.64073021
Pt       2.58316993      15.98255791       6.45263266
Pt       2.56690315      15.99736855      10.26089063
Pt       2.58316998      15.98255778      14.06914877
Pt       2.64072969      15.96465883      17.88105151
Pt       2.68231159      19.81869033       2.68231248
Pt       2.63567332      19.84535506       6.43826479
Pt       2.63236402      19.85651430      10.26089062
Pt       2.63567335      19.84535518      14.08351668
Pt       2.68231173      19.81869010      17.83946950
Pt       6.43826421       0.67642558       2.63567331
Pt       6.45124275       0.62863916       6.45124304
Pt       6.43159441       0.61390062      10.26089082
Pt       6.45124287       0.62863935      14.07053862
Pt       6.43826452       0.67642617      17.88610808
Pt       6.45263215       4.53922331       2.58317005
Pt       6.44249154       4.50665255       6.44249162
Pt       6.43359684       4.48833214      10.26089045
Pt       6.44249164       4.50665249      14.07928953
Pt       6.45263242       4.53922343      17.93861136
Pt       6.44044826       8.35485268       2.54711125
Pt       6.42583565       8.35071723       6.42583556
Pt       6.41496567       8.34544390      10.26089029
Pt       6.42583574       8.35071730      14.09594534
Pt       6.44044851       8.35485276      17.97467001
Pt       6.44044830      12.16692854       2.54711126
Pt       6.42583568      12.17106387       6.42583560
Pt       6.41496566      12.17633737      10.26089038
Pt       6.42583569      12.17106405      14.09594540
Pt       6.44044846      12.16692854      17.97466995
Pt       6.45263222      15.98255815       2.58317022
Pt       6.44249158      16.01512882       6.44249162
Pt       6.43359685      16.03344917      10.26089044
Pt       6.44249162      16.01512874      14.07928953
Pt       6.45263238      15.98255779      17.93861131
Pt       6.43826438      19.84535534       2.63567383
Pt       6.45124290      19.89314161       6.45124292
Pt       6.43159456      19.90788037      10.26089052
Pt       6.45124299      19.89314202      14.07053835
Pt       6.43826455      19.84535542      17.88610798
Pt      10.26089055       0.66526645       2.63236397
Pt      10.26089062       0.61390078       6.43159453
Pt      10.26089061       0.59537568      10.26089073
Pt      10.26089052       0.61390072      14.09018705
Pt      10.26089052       0.66526689      17.88941736
Pt      10.26089065       4.52441247       2.56690322
Pt      10.26089076       4.48833200       6.43359677
Pt      10.26089075       4.47022052      10.26089035
Pt      10.26089061       4.48833209      14.08818425
Pt      10.26089054       4.52441274      17.95487809
Pt      10.26089072       8.35031142       2.52728279
Pt      10.26089085       8.34544386       6.41496548
Pt      10.26089089       8.34005551      10.26089021
Pt      10.26089080       8.34544392      14.10681533
Pt      10.26089068       8.35031146      17.99449835
Pt      10.26089074      12.17146991       2.52728280
Pt      10.26089089      12.17633734       6.41496549
Pt      10.26089094      12.18172585      10.26089028
Pt      10.26089084      12.17633750      14.10681538
Pt      10.26089068      12.17146984      17.99449828
Pt      10.26089063      15.99736882       2.56690340
Pt      10.26089075      16.03344916       6.43359679
Pt      10.26089085      16.05156066      10.26089039
Pt      10.26089082      16.03344915      14.08818429
Pt      10.26089068      15.99736853      17.95487805
Pt      10.26089054      19.85651462       2.63236450
Pt      10.26089064      19.90788017       6.43159443
Pt      10.26089075      19.92640527      10.26089048
Pt      10.26089077      19.90788041      14.09018678
Pt      10.26089069      19.85651454      17.88941725
Pt      14.08351671       0.67642573       2.63567339
Pt      14.07053825       0.62863945       6.45124296
Pt      14.09018670       0.61390075      10.26089072
Pt      14.07053821       0.62863927      14.07053863
Pt      14.08351654       0.67642608      17.88610803
Pt      14.06914881       4.53922306       2.58317013
Pt      14.07928947       4.50665230       6.44249164
Pt      14.08818430       4.48833202      10.26089034
Pt      14.07928946       4.50665257      14.07928942
Pt      14.06914863       4.53922357      17.93861119
Pt      14.08133277       8.35485273       2.54711136
Pt      14.09594542       8.35071731       6.42583566
Pt      14.10681551       8.34544399      10.26089026
Pt      14.09594542       8.35071738      14.09594525
Pt      14.08133259       8.35485278      17.97466979
Pt      14.08133282      12.16692863       2.54711142
Pt      14.09594548      12.17106396       6.42583567
Pt      14.10681549      12.17633742      10.26089030
Pt      14.09594533      12.17106407      14.09594527
Pt      14.08133248      12.16692852      17.97466972
Pt      14.06914888      15.98255804       2.58317032
Pt      14.07928956      16.01512868       6.44249171
Pt      14.08818426      16.03344907      10.26089048
Pt      14.07928937      16.01512872      14.07928947
Pt      14.06914853      15.98255780      17.93861110
Pt      14.08351666      19.84535560       2.63567385
Pt      14.07053820      19.89314178       6.45124300
Pt      14.09018656      19.90788024      10.26089063
Pt      14.07053808      19.89314167      14.07053839
Pt      14.08351648      19.84535517      17.88610784
Pt      17.83946993       0.70309068       2.68231181
Pt      17.88610817       0.67642574       6.43826471
Pt      17.88941746       0.66526655      10.26089088
Pt      17.88610795       0.67642584      14.08351714
Pt      17.83946927       0.70309121      17.83946977
Pt      17.88105179       4.55712192       2.64072980
Pt      17.93861132       4.53922311       6.45263256
Pt      17.95487817       4.52441252      10.26089061
Pt      17.93861125       4.53922343      14.06914883
Pt      17.88105132       4.55712246      17.88105158
Pt      17.90367651       8.35072010       2.61810486
Pt      17.97466982       8.35485281       6.44044852
Pt      17.99449823       8.35031151      10.26089051
Pt      17.97466973       8.35485277      14.08133270
Pt      17.90367605       8.35072008      17.90367635
Pt      17.90367641      12.17106139       2.61810494
Pt      17.97466969      12.16692859       6.44044847
Pt      17.99449801      12.17146985      10.26089046
Pt      17.97466948      12.16692850      14.08133266
Pt      17.90367589      12.17106111      17.90367633
Pt      17.88105163      15.96465923       2.64072996
Pt      17.93861114      15.98255791       6.45263253
Pt      17.95487777      15.99736859      10.26089058
Pt      17.93861079      15.98255784      14.06914878
Pt      17.88105107      15.96465889      17.88105152
Pt      17.83946957      19.81869070       2.68231217
Pt      17.88610784      19.84535559       6.43826473
Pt      17.88941702      19.85651470      10.26089077
Pt      17.88610755      19.84535542      14.08351686
Pt      17.83946916      19.81869022      17.83946955
Pt       2.68231106       2.68231170       0.70309130
Pt       2.64072943       2.64072989       4.55712238
Pt       2.61810479       2.61810508       8.35072023
Pt       2.61810494       2.61810507      12.17106136
Pt       2.64072979       2.64072999      15.96465919
Pt       2.68231177       2.68231207      19.81869021
Pt       2.63567271       6.43826462       0.67642653
Pt       2.58316985       6.45263265       4.53922332
Pt       2.54711141       6.44044882       8.35485263
Pt       2.54711148       6.44044882      12.16692850
Pt       2.58317003       6.45263271      15.98255803
Pt       2.63567327       6.43826477      19.84535516
Pt       2.63236342      10.26089062       0.66526726
Pt       2.56690306      10.26089044       4.52441260
Pt       2.52728296      10.26089054       8.35031132
Pt       2.52728300      10.26089066      12.17146979
Pt       2.56690314      10.26089067      15.99736869
Pt       2.63236389      10.26089067      19.85651412
Pt       2.63567286      14.08351690       0.67642629
Pt       2.58316987      14.06914860       4.53922341
Pt       2.54711135      14.08133249       8.35485270
Pt       2.54711139      14.08133251      12.16692861
Pt       2.58316998      14.06914853      15.98255802
Pt       2.63567331      14.08351643      19.84535489
Pt       2.68231136      17.83946983       0.70309161
Pt       2.64072961      17.88105155       4.55712254
Pt       2.61810489      17.90367634       8.35072009
Pt       2.61810491      17.90367629      12.17106120
Pt       2.64072970      17.88105133      15.96465911
Pt       2.68231170      17.83946919      19.81869016
Pt       6.43826410       2.63567316       0.67642579
Pt       6.45263227       2.58317012       4.53922331
Pt       6.44044863       2.54711149       8.35485277
Pt       6.44044868       2.54711144      12.16692860
Pt       6.45263244       2.58317016      15.98255807
Pt       6.43826454       2.63567356      19.84535537
Pt       6.45124234       6.45124285       0.62863938
Pt       6.44249137       6.44249174       4.50665231
Pt       6.42583582       6.42583589       8.35071702
Pt       6.42583588       6.42583586      12.17106377
Pt       6.44249153       6.44249170      16.01512885
Pt       6.45124284       6.45124297      19.89314203
Pt       6.43159382      10.26089070       0.61390061
Pt       6.43359646      10.26089048       4.48833186
Pt       6.41496559      10.26089056       8.34544356
Pt       6.41496562      10.26089068      12.17633715
Pt       6.43359653      10.26089066      16.03344919
Pt       6.43159427      10.26089070      19.90788058
Pt       6.45124236      14.07053879       0.62863916
Pt       6.44249142      14.07928954       4.50665237
Pt       6.42583584      14.09594541       8.35071707
Pt       6.42583585      14.09594545      12.17106389
Pt       6.44249145      14.07928952      16.01512883
Pt       6.45124276      14.07053828      19.89314191
Pt       6.43826420      17.88610824       0.67642624
Pt       6.45263235      17.93861125       4.53922351
Pt       6.44044869      17.97466990       8.35485260
Pt       6.44044874      17.97466989      12.16692842
Pt       6.45263246      17.93861119      15.98255795
Pt       6.43826451      17.88610771      19.84535550
Pt      10.26089057       2.63236362       0.66526663
Pt      10.26089067       2.56690315       4.52441267
Pt      10.26089072       2.52728294       8.35031147
Pt      10.26089063       2.52728291      12.17146973
Pt      10.26089050       2.56690326      15.99736862
Pt      10.26089058       2.63236420      19.85651457
Pt      10.26089065       6.43159423       0.61390062
Pt      10.26089074       6.43359672       4.48833204
Pt      10.26089083       6.41496560       8.34544366
Pt      10.26089079       6.41496562      12.17633698
Pt      10.26089065       6.43359677      16.03344903
Pt      10.26089069       6.43159441      19.90788065
Pt      10.26089072      10.26089079       0.59537532
Pt      10.26089082      10.26089057       4.47022044
Pt      10.26089092      10.26089063       8.34005518
Pt      10.26089090      10.26089073      12.18172538
Pt      10.26089075      10.26089066      16.05156049
Pt      10.26089074      10.26089069      19.92640580
Pt      10.26089069      14.09018738       0.61390046
Pt      10.26089079      14.08818449       4.48833210
Pt      10.26089090      14.10681565       8.34544371
Pt      10.26089090      14.10681572      12.17633711
Pt      10.26089075      14.08818453      16.03344899
Pt      10.26089071      14.09018685      19.90788057
Pt      10.26089057      17.88941763       0.66526692
Pt      10.26089058      17.95487802       4.52441286
Pt      10.26089068      17.99449821       8.35031134
Pt      10.26089076      17.99449821      12.17146962
Pt      10.26089071      17.95487803      15.99736852
Pt      10.26089069      17.88941708      19.85651465
Pt      14.08351680       2.63567293       0.67642601
Pt      14.06914875       2.58316988       4.53922335
Pt      14.08133251       2.54711123       8.35485268
Pt      14.08133248       2.54711130      12.16692847
Pt      14.06914861       2.58317020      15.98255797
Pt      14.08351654       2.63567372      19.84535534
Pt      14.07053857       6.45124271       0.62863945
Pt      14.07928961       6.44249164       4.50665240
Pt      14.09594527       6.42583584       8.35071703
Pt      14.09594529       6.42583593      12.17106369
Pt      14.07928957       6.44249183      16.01512873
Pt      14.07053833       6.45124304      19.89314174
Pt      14.09018716      10.26089081       0.61390084
Pt      14.08818464      10.26089064       4.48833196
Pt      14.10681556      10.26089069       8.34544358
Pt      14.10681554      10.26089075      12.17633706
Pt      14.08818450      10.26089066      16.03344905
Pt      14.09018684      10.26089067      19.90788027
Pt      14.07053862      14.07053878       0.62863943
Pt      14.07928974      14.07928949       4.50665247
Pt      14.09594532      14.09594538       8.35071708
Pt      14.09594522      14.09594545      12.17106380
Pt      14.07928945      14.07928955      16.01512866
Pt      14.07053822      14.07053828      19.89314169
Pt      14.08351677      17.88610822       0.67642613
Pt      14.06914874      17.93861111       4.53922354
Pt      14.08133240      17.97466968       8.35485270
Pt      14.08133232      17.97466967      12.16692848
Pt      14.06914850      17.93861105      15.98255788
Pt      14.08351650      17.88610759      19.84535529
Pt      17.83946999       2.68231130       0.70309108
Pt      17.88105178       2.64072945       4.55712224
Pt      17.90367654       2.61810458       8.35072013
Pt      17.90367647       2.61810474      12.17106139
Pt      17.88105146       2.64072993      15.96465929
Pt      17.83946912       2.68231222      19.81869037
Pt      17.88610829       6.43826449       0.67642600
Pt      17.93861131       6.45263253       4.53922321
Pt      17.97466987       6.44044866       8.35485262
Pt      17.97466987       6.44044873      12.16692857
Pt      17.93861111       6.45263271      15.98255810
Pt      17.88610752       6.43826476      19.84535511
Pt      17.88941752      10.26089086       0.66526697
Pt      17.95487802      10.26089073       4.52441245
Pt      17.99449813      10.26089072       8.35031123
Pt      17.99449808      10.26089068      12.17146978
Pt      17.95487777      10.26089057      15.99736874
Pt      17.88941678      10.26089059      19.85651428
Pt      17.88610804      14.08351703       0.67642615
Pt      17.93861118      14.06914870       4.53922324
Pt      17.97466960      14.08133257       8.35485256
Pt      17.97466944      14.08133255      12.16692853
Pt      17.93861076      14.06914857      15.98255803
Pt      17.88610733      14.08351649      19.84535530
Pt      17.83946963      17.83946983       0.70309119
Pt      17.88105159      17.88105155       4.55712235
Pt      17.90367622      17.90367635       8.35072009
Pt      17.90367604      17.90367627      12.17106130
Pt      17.88105116      17.88105135      15.96465917
Pt      17.83946907      17.83946915      19.81869041
