172
Properties=species:S:1:pos:R:3 Geometry=T Step:=T 39=T pbc="F F F"
Ag       0.15693805       0.15693797       0.15693780
Ag       0.14132193       0.14132190       4.13851562
Ag       0.14132193       0.14132190       8.17455318
Ag       0.15693793       0.15693785      12.15613090
Ag       0.14132196       4.13851574       0.14132185
Ag       0.07158347       4.14195691       4.14195685
Ag       0.07158348       4.14195684       8.17111204
Ag       0.14132192       4.13851565      12.17174693
Ag       0.14132198       8.17455323       0.14132187
Ag       0.07158343       8.17111206       4.14195679
Ag       0.07158338       8.17111202       8.17111198
Ag       0.14132186       8.17455325      12.17174700
Ag       0.15693803      12.15613095       0.15693779
Ag       0.14132191      12.17174700       4.13851558
Ag       0.14132183      12.17174708       8.17455314
Ag       0.15693789      12.15613111      12.15613094
Ag       4.13851575       0.14132195       0.14132186
Ag       4.14195694       0.07158349       4.14195688
Ag       4.14195687       0.07158350       8.17111203
Ag       4.13851570       0.14132192      12.17174691
Ag       4.14195695       4.14195694       0.07158350
Ag       4.13933550       4.13933549       4.13933551
Ag       4.13933543       4.13933544       8.17373345
Ag       4.14195683       4.14195682      12.24148535
Ag       4.14195688       8.17111200       0.07158350
Ag       4.13933548       8.17373338       4.13933547
Ag       4.13933551       8.17373335       8.17373341
Ag       4.14195689       8.17111199      12.24148541
Ag       4.13851569      12.17174692       0.14132190
Ag       4.14195684      12.24148542       4.14195681
Ag       4.14195689      12.24148547       8.17111196
Ag       4.13851568      12.17174705      12.17174697
Ag       8.17455319       0.14132197       0.14132188
Ag       8.17111207       0.07158346       4.14195681
Ag       8.17111201       0.07158340       8.17111197
Ag       8.17455323       0.14132186      12.17174697
Ag       8.17111201       4.14195687       0.07158351
Ag       8.17373342       4.13933547       4.13933545
Ag       8.17373337       4.13933551       8.17373340
Ag       8.17111201       4.14195688      12.24148541
Ag       8.17111194       8.17111193       0.07158353
Ag       8.17373339       8.17373335       4.13933551
Ag       8.17373344       8.17373341       8.17373344
Ag       8.17111207       8.17111204      12.24148534
Ag       8.17455311      12.17174691       0.14132190
Ag       8.17111194      12.24148536       4.14195689
Ag       8.17111202      12.24148536       8.17111201
Ag       8.17455320      12.17174696      12.17174690
Ag      12.15613085       0.15693794       0.15693778
Ag      12.17174693       0.14132191       4.13851561
Ag      12.17174701       0.14132183       8.17455317
Ag      12.15613099       0.15693782      12.15613093
Ag      12.17174687       4.13851566       0.14132190
Ag      12.24148541       4.14195680       4.14195680
Ag      12.24148547       4.14195686       8.17111198
Ag      12.17174699       4.13851564      12.17174696
Ag      12.17174687       8.17455315       0.14132190
Ag      12.24148535       8.17111194       4.14195688
Ag      12.24148536       8.17111201       8.17111203
Ag      12.17174691       8.17455321      12.17174689
Ag      12.15613079      12.15613091       0.15693787
Ag      12.17174690      12.17174694       4.13851564
Ag      12.17174690      12.17174694       8.17455317
Ag      12.15613091      12.15613102      12.15613085
Ag       0.09312319       2.12890943       2.12890937
Ag       0.07964951       2.11816948       6.15653443
Ag       0.09312321       2.12890928      10.18415954
Ag       0.07964949       6.15653449       2.11816950
Ag       0.05671513       6.15653448       6.15653441
Ag       0.07964946       6.15653443      10.19489938
Ag       0.09312312      10.18415947       2.12890932
Ag       0.07964938      10.19489934       6.15653437
Ag       0.09312302      10.18415947      10.18415943
Ag       4.14998432       2.11667177       2.11667175
Ag       4.14356563       2.09501826       6.15653448
Ag       4.14998419       2.11667167      10.19639719
Ag       4.14356568       6.15653445       2.09501831
Ag       4.13342242       6.15653442       6.15653446
Ag       4.14356563       6.15653439      10.21805064
Ag       4.14998430      10.19639709       2.11667173
Ag       4.14356567      10.21805055       6.15653441
Ag       4.14998434      10.19639711      10.19639714
Ag       8.16308460       2.11667178       2.11667171
Ag       8.16950322       2.09501833       6.15653440
Ag       8.16308452       2.11667179      10.19639710
Ag       8.16950323       6.15653440       2.09501831
Ag       8.17964648       6.15653442       6.15653445
Ag       8.16950324       6.15653447      10.21805060
Ag       8.16308456      10.19639709       2.11667176
Ag       8.16950325      10.21805059       6.15653447
Ag       8.16308466      10.19639720      10.19639717
Ag      12.21994573       2.12890940       2.12890931
Ag      12.23341947       2.11816956       6.15653439
Ag      12.21994588       2.12890946      10.18415939
Ag      12.23341934       6.15653439       2.11816951
Ag      12.25635372       6.15653437       6.15653443
Ag      12.23341940       6.15653445      10.19489933
Ag      12.21994564      10.18415944       2.12890940
Ag      12.23341932      10.19489935       6.15653444
Ag      12.21994565      10.18415957      10.18415949
Ag       2.12890947       0.09312317       2.12890939
Ag       2.11816951       0.07964951       6.15653444
Ag       2.12890932       0.09312319      10.18415951
Ag       2.11667177       4.14998431       2.11667175
Ag       2.09501823       4.14356562       6.15653448
Ag       2.11667163       4.14998420      10.19639721
Ag       2.11667178       8.16308459       2.11667172
Ag       2.09501829       8.16950320       6.15653441
Ag       2.11667174       8.16308454      10.19639715
Ag       2.12890946      12.21994578       2.12890934
Ag       2.11816955      12.23341950       6.15653437
Ag       2.12890947      12.21994589      10.18415940
Ag       6.15653449       0.07964951       2.11816952
Ag       6.15653451       0.05671516       6.15653443
Ag       6.15653444       0.07964946      10.19489933
Ag       6.15653448       4.14356567       2.09501831
Ag       6.15653445       4.13342242       6.15653445
Ag       6.15653440       4.14356564      10.21805062
Ag       6.15653443       8.16950319       2.09501832
Ag       6.15653446       8.17964643       6.15653445
Ag       6.15653448       8.16950322      10.21805062
Ag       6.15653440      12.23341936       2.11816954
Ag       6.15653440      12.25635370       6.15653442
Ag       6.15653446      12.23341941      10.19489933
Ag      10.18415942       0.09312310       2.12890932
Ag      10.19489930       0.07964938       6.15653439
Ag      10.18415937       0.09312296      10.18415938
Ag      10.19639710       4.14998428       2.11667170
Ag      10.21805056       4.14356566       6.15653440
Ag      10.19639707       4.14998434      10.19639709
Ag      10.19639710       8.16308456       2.11667175
Ag      10.21805061       8.16950322       6.15653447
Ag      10.19639717       8.16308468      10.19639716
Ag      10.18415938      12.21994568       2.12890941
Ag      10.19489934      12.23341934       6.15653444
Ag      10.18415951      12.21994570      10.18415947
Ag       2.12890950       2.12890948       0.09312310
Ag       2.11667171       2.11667171       4.14998431
Ag       2.11667162       2.11667164       8.16308464
Ag       2.12890930       2.12890929      12.21994563
Ag       2.11816960       6.15653447       0.07964947
Ag       2.09501828       6.15653444       4.14356565
Ag       2.09501824       6.15653438       8.16950326
Ag       2.11816949       6.15653441      12.23341938
Ag       2.12890949      10.18415943       0.09312306
Ag       2.11667178      10.19639709       4.14998422
Ag       2.11667178      10.19639709       8.16308458
Ag       2.12890944      10.18415947      12.21994580
Ag       6.15653447       2.11816960       0.07964949
Ag       6.15653447       2.09501831       4.14356564
Ag       6.15653439       2.09501829       8.16950324
Ag       6.15653443       2.11816952      12.23341937
Ag       6.15653445       6.15653443       0.05671523
Ag       6.15653446       6.15653442       4.13342243
Ag       6.15653445       6.15653442       8.17964649
Ag       6.15653447       6.15653442      12.25635367
Ag       6.15653441      10.19489927       0.07964950
Ag       6.15653443      10.21805054       4.14356566
Ag       6.15653449      10.21805058       8.16950324
Ag       6.15653448      10.19489937      12.23341936
Ag      10.18415940       2.12890945       0.09312306
Ag      10.19639708       2.11667179       4.14998419
Ag      10.19639705       2.11667182       8.16308456
Ag      10.18415940       2.12890945      12.21994584
Ag      10.19489928       6.15653441       0.07964951
Ag      10.21805058       6.15653441       4.14356564
Ag      10.21805059       6.15653448       8.16950324
Ag      10.19489935       6.15653446      12.23341938
Ag      10.18415936      10.18415940       0.09312315
Ag      10.19639714      10.19639714       4.14998431
Ag      10.19639720      10.19639721       8.16308462
Ag      10.18415953      10.18415958      12.21994562
