256
Properties=species:S:1:pos:R:3 Geometry=T Step:=T 50=T pbc="F F F"
Ag       0.16672427       0.16672386       0.16672358
Ag       0.10698093       2.14042803       2.14042795
Ag       2.14042852       0.10698094       2.14042808
Ag       2.14042851       2.14042811       0.10698065
Ag       0.15387607       0.15387577       4.15186368
Ag       0.16312675       0.16312647      12.21233714
Ag       4.15186438       0.15387604       0.15387592
Ag      12.21233701       0.16312731       0.16312713
Ag       0.15387580       4.15186377       0.15387531
Ag       0.16312595      12.21233703       0.16312541
Ag       0.09262951       2.12922927       6.17193018
Ag       0.16312677       2.15291007      14.20212071
Ag       4.16334264       2.12972630       2.12972646
Ag      12.22060972       2.14463767       2.14463771
Ag       0.09262906       6.17193007       2.12922935
Ag       0.16312598      14.20212149       2.15290998
Ag       2.12922972       0.09262963       6.17193020
Ag       2.15291051       0.16312671      14.20212046
Ag       6.17193055       0.09262986       2.12922969
Ag      14.20212005       0.16312751       2.15291050
Ag       2.12972647       4.16334224       2.12972636
Ag       2.14463763      12.22060959       2.14463736
Ag       2.12972648       2.12972622       4.16334240
Ag       2.14463760       2.14463732      12.22060982
Ag       6.17193054       2.12922953       0.09262962
Ag      14.20212019       2.15291061       0.16312717
Ag       2.12922970       6.17193006       0.09262891
Ag       2.15291056      14.20212139       0.16312558
Ag       0.15254475       0.15254448       8.19390265
Ag       8.19390286       0.15254494       0.15254485
Ag       0.15254406       8.19390257       0.15254364
Ag       0.10068949       2.13896483      10.20250498
Ag       8.18403584       2.12424588       2.12424608
Ag       0.10068859      10.20250480       2.13896485
Ag       2.13896528       0.10068957      10.20250491
Ag      10.20250488       0.10069015       2.13896532
Ag       2.12424592       8.18403545       2.12424585
Ag       2.12424594       2.12424571       8.18403574
Ag      10.20250489       2.13896527       0.10068988
Ag       2.13896529      10.20250473       0.10068836
Ag       0.08978128       4.15475721       4.15475738
Ag       0.10698116      12.22481898      12.22481907
Ag       0.10068860      12.22628212       4.16274225
Ag       0.10068955       4.16274216      12.22628226
Ag       4.15475771       0.08978179       4.15475751
Ag      12.22481902       0.10698282      12.22481859
Ag       4.16274263       0.10068990      12.22628204
Ag      12.22628199       0.10069052       4.16274261
Ag       4.15475770       4.15475729       0.08978129
Ag      12.22481909      12.22481858       0.10698144
Ag      12.22628204       4.16274252       0.10069003
Ag       4.16274265      12.22628196       0.10068843
Ag       0.06953747       6.17263355       6.17263392
Ag       0.16672446      14.19852313      14.19852313
Ag       0.15254414      14.21270328       6.17134454
Ag       0.15254484       6.17134448      14.21270255
Ag       4.15778528       2.10816433       6.17641683
Ag      12.22481903       2.14042853      14.25826429
Ag       4.16274263       2.13896505      14.26455719
Ag      12.24100113       2.12424601       6.18121169
Ag       4.15778529       6.17641645       2.10816458
Ag      12.22481908      14.25826554       2.14042839
Ag      12.24100124       6.18121144       2.12424610
Ag       4.16274263      14.26455855       2.13896505
Ag       2.10816442       4.15778495       6.17641683
Ag       2.14042856      12.22481886      14.25826595
Ag       2.12424593      12.24100111       6.18121161
Ag       2.13896529       4.16274223      14.26455747
Ag       6.17263394       0.06953845       6.17263396
Ag      14.19852231       0.16672542      14.19852174
Ag       6.17134485       0.15254533      14.21270176
Ag      14.21270165       0.15254574       6.17134456
Ag       6.17641687       4.15778504       2.10816465
Ag      14.25826561      12.22481854       2.14042844
Ag      14.26455695       4.16274256       2.13896540
Ag       6.18121179      12.24100108       2.12424590
Ag       2.10816442       6.17641645       4.15778531
Ag       2.14042854      14.25826609      12.22481898
Ag       2.13896530      14.26455860       4.16274230
Ag       2.12424596       6.18121135      12.24100135
Ag       6.17641686       2.10816439       4.15778542
Ag      14.25826453       2.14042856      12.22481855
Ag       6.18121177       2.12424585      12.24100121
Ag      14.26455674       2.13896541       4.16274264
Ag       6.17263393       6.17263356       0.06953758
Ag      14.19852299      14.19852249       0.16672445
Ag      14.21270222       6.17134442       0.15254507
Ag       6.17134478      14.21270308       0.15254396
Ag       0.08143284       4.15378092       8.18815632
Ag       0.09262912      12.23601764       8.19331701
Ag       8.18815625       0.08143359       4.15378147
Ag       8.19331717       0.09263076      12.23601742
Ag       4.15378146       8.18815597       0.08143224
Ag      12.23601759       8.19331666       0.09263007
Ag       4.15378142       0.08143337       8.18815625
Ag      12.23601744       0.09263108       8.19331684
Ag       0.09262967       8.19331689      12.23601777
Ag       0.08143226       8.18815606       4.15378121
Ag       8.18815624       4.15378118       0.08143307
Ag       8.19331711      12.23601744       0.09262918
Ag       0.08143291       6.17709074      10.21146608
Ag       0.15387595      14.21137153      10.21338328
Ag       8.18801046       2.09793315       6.17723691
Ag       8.19331715       2.12922965      14.27261632
Ag       4.16343549      10.20181155       2.11835011
Ag      12.23552089      10.20190430       2.12972650
Ag       4.16343545       2.11835000      10.20181191
Ag      12.23552069       2.12972654      10.20190452
Ag       0.15387621      10.21338332      14.21137122
Ag       0.08143227      10.21146584       6.17709102
Ag       8.18801047       6.17723647       2.09793339
Ag       8.19331711      14.27261783       2.12922961
Ag       2.11835013       4.16343512      10.20181196
Ag       2.12972650      12.23552058      10.20190485
Ag      10.21146575       0.08143404       6.17709110
Ag      10.21338341       0.15387723      14.21136989
Ag       6.17723683       8.18801014       2.09793332
Ag      14.27261688       8.19331665       2.12922983
Ag       6.17709115       0.08143376      10.21146588
Ag      14.21137001       0.15387746      10.21338284
Ag       2.12922977       8.19331686      14.27261730
Ag       2.09793311       8.18801017       6.17723686
Ag      10.20181178       4.16343540       2.11835036
Ag      10.20190486      12.23552054       2.12972645
Ag       2.09793312       6.17723637       8.18801064
Ag       2.12922974      14.27261803       8.19331701
Ag      10.20181177       2.11835021       4.16343565
Ag      10.20190481       2.12972649      12.23552061
Ag       6.17709119      10.21146568       0.08143230
Ag      14.21137089      10.21338284       0.15387645
Ag       6.17723677       2.09793309       8.18801061
Ag      14.27261611       2.12922983       8.19331684
Ag       2.12972650      10.20190456      12.23552086
Ag       2.11835010      10.20181159       4.16343540
Ag      10.21146579       6.17709085       0.08143323
Ag      10.21338335      14.21137107       0.15387593
Ag       0.06953751       8.19261315       8.19261346
Ag       8.19261330       0.06953890       8.19261337
Ag       8.19261332       8.19261306       0.06953769
Ag       0.08978140      10.21048961      10.21048978
Ag       8.18883053       2.10816447      10.20746191
Ag       8.18883059      10.20746161       2.10816455
Ag       2.10816447       8.18883019      10.20746207
Ag      10.21048961       0.08978304      10.21048947
Ag      10.20746190       8.18883016       2.10816465
Ag       2.10816444      10.20746167       8.18883058
Ag      10.20746180       2.10816454       8.18883049
Ag      10.21048967      10.21048936       0.08978169
Ag       4.15606704       4.15606678       4.15606719
Ag      12.22060979      12.22060933      12.22060953
Ag      12.23552090      12.23552050       4.16334269
Ag       4.16343546       4.16343518      12.24689704
Ag      12.23552072       4.16334259      12.23552057
Ag       4.16343546      12.24689684       4.16343542
Ag       4.16334266      12.23552051      12.23552079
Ag      12.24689688       4.16343547       4.16343571
Ag       4.14687084       6.17549197       6.17549259
Ag      12.21233699      14.20211971      14.20211974
Ag      12.23601758      14.27261698       6.17193037
Ag       4.15378146       6.17709079      14.28381359
Ag      12.23601747       6.17193020      14.27261592
Ag       4.15378144      14.28381478       6.17709107
Ag       4.15186437      14.21137094      14.21137091
Ag      12.26731370       6.17723655       6.17723696
Ag       6.17549233       4.14687062       6.17549261
Ag      14.20211999      12.21233649      14.20211957
Ag      14.27261690      12.23601723       6.17193038
Ag       6.17709114       4.15378115      14.28381325
Ag      14.21137003       4.15186420      14.21136964
Ag       6.17723682      12.26731370       6.17723687
Ag       6.17193052      12.23601732      14.27261708
Ag      14.28381294       4.15378137       6.17709116
Ag       6.17549237       6.17549202       4.14687118
Ag      14.20212007      14.20211970      12.21233656
Ag      14.21137087      14.21137056       4.15186416
Ag       6.17723679       6.17723642      12.26731392
Ag      14.27261605       6.17193019      12.23601723
Ag       6.17709115      14.28381473       4.15378137
Ag       6.17193049      14.27261726      12.23601749
Ag      14.28381323       6.17709089       4.15378162
Ag       4.15272842       4.15272814       8.18659700
Ag      12.24100130      12.24100095       8.18403564
Ag      12.25708243       4.15778528       8.18883047
Ag       4.15778529      12.25708240       8.18883059
Ag       8.18659678       4.15272833       4.15272875
Ag       8.18403583      12.24100094      12.24100122
Ag       8.18883059      12.25708246       4.15778539
Ag       8.18883052       4.15778516      12.25708259
Ag       4.15272847       8.18659649       4.15272861
Ag      12.24100120       8.18403536      12.24100110
Ag       4.15778534       8.18883018      12.25708269
Ag      12.25708258       8.18883014       4.15778556
Ag       4.15272845       6.17865001      10.21251885
Ag      12.22628205      14.26455690      10.20250458
Ag      12.25708244       6.17641658      10.20746177
Ag       4.15475773      14.27546563      10.21048971
Ag       8.19115108       6.17409556       6.17409621
Ag       8.19390276      14.21270204      14.21270202
Ag       8.19261330      14.29570937       6.17263400
Ag       8.19261327       6.17263366      14.29570806
Ag       4.15272848      10.21251838       6.17865051
Ag      12.22628203      10.20250440      14.26455645
Ag       4.15475780      10.21048946      14.27546515
Ag      12.25708261      10.20746147       6.17641690
Ag       6.17865040       4.15272821      10.21251880
Ag      14.26455690      12.22628164      10.20250452
Ag      14.27546394       4.15475764      10.21048939
Ag       6.17641688      12.25708235      10.20746200
Ag      10.21251850       4.15272842       6.17865062
Ag      10.20250483      12.22628170      14.26455682
Ag      10.20746192      12.25708239       6.17641688
Ag      10.21048960       4.15475760      14.27546400
Ag       6.17409589       8.19115085       6.17409616
Ag      14.21270162       8.19390245      14.21270130
Ag       6.17263397       8.19261308      14.29570847
Ag      14.29570822       8.19261301       6.17263404
Ag       6.17409583       6.17409546       8.19115150
Ag      14.21270215      14.21270191       8.19390260
Ag      14.29570788       6.17263367       8.19261332
Ag       6.17263392      14.29570943       8.19261344
Ag      10.21251853       6.17865021       4.15272881
Ag      10.20250486      14.26455699      12.22628184
Ag      10.21048967      14.27546535       4.15475769
Ag      10.20746179       6.17641658      12.25708253
Ag       6.17865048      10.21251837       4.15272863
Ag      14.26455664      10.20250437      12.22628170
Ag       6.17641690      10.20746155      12.25708266
Ag      14.27546479      10.21048926       4.15475780
Ag       4.14687087       8.18975441       8.18975500
Ag      12.26731373       8.18801009       8.18801049
Ag       8.18975468       4.14687070       8.18975498
Ag       8.18801051      12.26731365       8.18801058
Ag       8.18975477       8.18975448       4.14687119
Ag       8.18801047       8.18801013      12.26731388
Ag       4.15606710      10.20917976      10.20918023
Ag      12.24689696      10.20181128      10.20181160
Ag       8.18975469       6.17549204      10.21837629
Ag       8.18815624      14.28381388      10.21146583
Ag       8.18975479      10.21837586       6.17549256
Ag       8.18815624      10.21146557      14.28381333
Ag       6.17549239       8.18975439      10.21837634
Ag      14.28381286       8.18815589      10.21146562
Ag      10.20917999       4.15606701      10.20918006
Ag      10.20181180      12.24689667      10.20181170
Ag      10.21837602       8.18975445       6.17549261
Ag      10.21146574       8.18815596      14.28381289
Ag       6.17549241      10.21837584       8.18975496
Ag      14.28381320      10.21146546       8.18815613
Ag      10.21837596       6.17549211       8.18975492
Ag      10.21146580      14.28381379       8.18815621
Ag      10.20918010      10.20917971       4.15606730
Ag      10.20181176      10.20181133      12.24689690
Ag       8.19115112       8.19115084       8.19115143
Ag       8.18659683      10.21251825      10.21251869
Ag      10.21251851       8.18659642      10.21251861
Ag      10.21251857      10.21251823       8.18659685
