500
Properties=species:S:1:pos:R:3 Geometry=T Step:=T 62=T pbc="F F F"
Ag       0.20124133       0.20124069       0.20124119
Ag       0.13818175       2.17355409       2.17355448
Ag       2.17355453       0.13818142       2.17355451
Ag       2.17355448       2.17355408       0.13818164
Ag       0.18584463       0.18584435       4.18037295
Ag       0.19650392       0.19650347      16.28369767
Ag       4.18037267       0.18584418       0.18584447
Ag      16.28369768       0.19650324       0.19650360
Ag       0.18584451       4.18037260       0.18584453
Ag       0.19650409      16.28369704       0.19650399
Ag       0.12295363       2.15905721       6.20048542
Ag       0.19650377       2.18590623      18.27310066
Ag       4.19448972       2.16156248       2.16156284
Ag      16.29266971       2.17693370       2.17693418
Ag       0.12295349       6.20048529       2.15905746
Ag       0.19650416      18.27309960       2.18590667
Ag       2.15905732       0.12295351       6.20048544
Ag       2.18590659       0.19650324      18.27310073
Ag       6.20048514       0.12295348       2.15905719
Ag      18.27310048       0.19650296       2.18590594
Ag       2.16156297       4.19448955       2.16156295
Ag       2.17693484      16.29266894       2.17693486
Ag       2.16156299       2.16156259       4.19448976
Ag       2.17693481       2.17693434      16.29266933
Ag       6.20048509       2.15905697       0.12295355
Ag      18.27310061       2.18590550       0.19650322
Ag       2.15905733       6.20048525       0.12295345
Ag       2.18590659      18.27309980       0.19650386
Ag       0.17966652       0.17966647       8.22073621
Ag       0.18359300       0.18359287      12.26999738
Ag       8.22073574       0.17966635       0.17966648
Ag      12.26999717       0.18359293       0.18359313
Ag       0.17966662       8.22073624       0.17966672
Ag       0.18359354      12.26999756       0.18359364
Ag       0.12062045       2.15594313      10.24461895
Ag       0.13190232       2.17156819      14.27573451
Ag       8.22235429       2.14868332       2.14868362
Ag      12.25746686       2.15475310       2.15475352
Ag       0.12062070      10.24461923       2.15594362
Ag       0.13190273      14.27573444       2.17156876
Ag       2.15594312       0.12062039      10.24461893
Ag       2.17156843       0.13190209      14.27573449
Ag      10.24461866       0.12062056       2.15594296
Ag      14.27573445       0.13190222       2.17156807
Ag       2.14868403       8.22235461       2.14868410
Ag       2.15475413      12.25746720       2.15475426
Ag       2.14868384       2.14868360       8.22235450
Ag       2.15475377       2.15475347      12.25746693
Ag      10.24461865       2.15594275       0.12062058
Ag      14.27573448       2.17156767       0.13190232
Ag       2.15594337      10.24461920       0.12062067
Ag       2.17156859      14.27573444       0.13190259
Ag       0.12053075       4.18528749       4.18528762
Ag       0.13818045      16.29604931      16.29604979
Ag       0.13190270      16.29803500       4.19386930
Ag       0.13190203       4.19386920      16.29803554
Ag       4.18528750       0.12053073       4.18528759
Ag      16.29604998       0.13817928      16.29605040
Ag       4.19386924       0.13190178      16.29803565
Ag      16.29803577       0.13190187       4.19386893
Ag       4.18528744       4.18528741       0.12053067
Ag      16.29605018      16.29605011       0.13817922
Ag      16.29803583       4.19386858       0.13190179
Ag       4.19386900      16.29803517       0.13190235
Ag       0.09737353       6.20136773       6.20136741
Ag       0.20124052      18.26836321      18.26836414
Ag       0.18359354      18.28601024       6.19960632
Ag       0.18359234       6.19960644      18.28601182
Ag       4.18656555       2.13733093       6.21018537
Ag      16.29605000       2.17355363      18.33142466
Ag       4.19386929       2.17156811      18.33770234
Ag      16.31485070       2.15475273       6.21213639
Ag       4.18656535       6.21018533       2.13733141
Ag      16.29605016      18.33142429       2.17355389
Ag      16.31485065       6.21213613       2.15475323
Ag       4.19386906      18.33770133       2.17156872
Ag       2.13733135       4.18656556       6.21018535
Ag       2.17355470      16.29604930      18.33142385
Ag       2.15475426      16.31484966       6.21213652
Ag       2.17156848       4.19386926      18.33770233
Ag       6.20136724       0.09737363       6.20136734
Ag      18.26836444       0.20123899      18.26836501
Ag       6.19960610       0.18359191      18.28601210
Ag      18.28601160       0.18359177       6.19960600
Ag       6.21018520       4.18656539       2.13733122
Ag      18.33142467      16.29605017       2.17355382
Ag      18.33770225       4.19386859       2.17156778
Ag       6.21213611      16.31484986       2.15475419
Ag       2.13733146       6.21018538       4.18656543
Ag       2.17355467      18.33142315      16.29604979
Ag       2.17156872      18.33770112       4.19386937
Ag       2.15475386       6.21213659      16.31485010
Ag       6.21018528       2.13733086       4.18656545
Ag      18.33142435       2.17355353      16.29605051
Ag       6.21213646       2.15475327      16.31485038
Ag      18.33770205       2.17156740       4.19386892
Ag       6.20136710       6.20136753       0.09737344
Ag      18.26836491      18.26836454       0.20123908
Ag      18.28601197       6.19960575       0.18359166
Ag       6.19960570      18.28601090       0.18359298
Ag       0.10554873       4.17559555       8.22214409
Ag       0.12295235      16.31054645      12.26911815
Ag       0.12062028      16.31366023       8.22498448
Ag       0.11173090       4.18288775      12.26216754
Ag       8.22214389       0.10554891       4.17559524
Ag      12.26911773       0.12295120      16.31054737
Ag       8.22498418       0.12061903      16.31366113
Ag      12.26216740       0.11173120       4.18288748
Ag       4.17559516       8.22214435       0.10554876
Ag      16.31054720      12.26911827       0.12295085
Ag      16.31366115       8.22498430       0.12061874
Ag       4.18288752      12.26216783       0.11173134
Ag       4.18288753       0.11173085      12.26216751
Ag      16.31366122       0.12061908       8.22498438
Ag      16.31054738       0.12295107      12.26911824
Ag       4.17559523       0.10554877       8.22214409
Ag       0.12061935       8.22498469      16.31366065
Ag       0.11173156      12.26216784       4.18288794
Ag       0.10554888       8.22214445       4.17559549
Ag       0.12295198      12.26911816      16.31054661
Ag       8.22214379       4.17559526       0.10554875
Ag      12.26911777      16.31054702       0.12295135
Ag       8.22498389      16.31366064       0.12061962
Ag      12.26216743       4.18288731       0.11173102
Ag       0.09305018       6.20041985      10.24385440
Ag       0.18584348      18.28376031      14.28923090
Ag       0.17966619      18.28993762      10.24886743
Ag       0.11173044       6.20743592      14.28671573
Ag       8.22469487       2.11754483       6.20565997
Ag      12.26911775       2.15905655      18.34665277
Ag       8.22498422       2.15594273      18.34898504
Ag      12.26059879       2.12489745       6.20900417
Ag       4.18270662      10.24073780       2.13192997
Ag      16.30804166      14.27511443       2.16156255
Ag      16.32092072      10.24724891       2.14868326
Ag       4.19382361      14.27577989       2.15003973
Ag       4.19382394       2.15003879      14.27577957
Ag      16.32092107       2.14868258      10.24724882
Ag      16.30804202       2.16156179      14.27511424
Ag       4.18270687       2.13192915      10.24073730
Ag       0.17966527      10.24886749      18.28993884
Ag       0.11173134      14.28671582       6.20743591
Ag       0.09305080      10.24385517       6.20041957
Ag       0.18584315      14.28923052      18.28376114
Ag       8.22469478       6.20566009       2.11754526
Ag      12.26911777      18.34665222       2.15905713
Ag       8.22498391      18.34898404       2.15594348
Ag      12.26059881       6.20900407       2.12489797
Ag       2.13192951       4.18270701      10.24073733
Ag       2.16156322      16.30804100      14.27511416
Ag       2.14868425      16.32091989      10.24724890
Ag       2.15003924       4.19382393      14.27577961
Ag      10.24385426       0.09305055       6.20041929
Ag      14.28923059       0.18584202      18.28376196
Ag      10.24886684       0.17966448      18.28993957
Ag      14.28671583       0.11173061       6.20743559
Ag       6.20565976       8.22469534       2.11754551
Ag      18.34665296      12.26911828       2.15905647
Ag      18.34898512       8.22498435       2.15594234
Ag       6.20900394      12.26059929       2.12489873
Ag       6.20743558       0.11173032      14.28671583
Ag      18.28993926       0.17966413      10.24886741
Ag      18.28376170       0.18584174      14.28923137
Ag       6.20041920       0.09305021      10.24385436
Ag       2.15594322       8.22498474      18.34898481
Ag       2.12489878      12.26059934       6.20900435
Ag       2.11754562       8.22469545       6.20566003
Ag       2.15905743      12.26911816      18.34665213
Ag      10.24073723       4.18270667       2.13192932
Ag      14.27511429      16.30804143       2.16156276
Ag      10.24724846      16.32092021       2.14868399
Ag      14.27577981       4.19382346       2.15003885
Ag       2.11754544       6.20566031       8.22469493
Ag       2.15905757      18.34665126      12.26911820
Ag       2.15594364      18.34898341       8.22498454
Ag       2.12489822       6.20900444      12.26059877
Ag      10.24073723       2.13192896       4.18270674
Ag      14.27511395       2.16156199      16.30804195
Ag      10.24724857       2.14868307      16.32092071
Ag      14.27577972       2.15003841       4.19382368
Ag       6.20041903      10.24385504       0.09305053
Ag      18.28376213      14.28923114       0.18584165
Ag      18.28993954      10.24886739       0.17966402
Ag       6.20743538      14.28671593       0.11173091
Ag       6.20900416       2.12489764      12.26059872
Ag      18.34898473       2.15594201       8.22498444
Ag      18.34665264       2.15905603      12.26911831
Ag       6.20565994       2.11754489       8.22469490
Ag       2.14868403      10.24724911      16.32092002
Ag       2.15003970      14.27577984       4.19382380
Ag       2.13192995      10.24073783       4.18270686
Ag       2.16156320      14.27511400      16.30804115
Ag      10.24385419       6.20041942       0.09305024
Ag      14.28923075      18.28376158       0.18584224
Ag      10.24886677      18.28993863       0.17966527
Ag      14.28671586       6.20743541       0.11173030
Ag       0.08460916       8.22304526       8.22304449
Ag       0.09737223      12.26823620      12.26823544
Ag       0.09305049      12.26918421       8.22574845
Ag       0.09304961       8.22574905      12.26918345
Ag       8.22304431       0.08460914       8.22304441
Ag      12.26823557       0.09737139      12.26823565
Ag       8.22574819       0.09304945      12.26918356
Ag      12.26918353       0.09304977       8.22574830
Ag       8.22304407       8.22304496       0.08460901
Ag      12.26823516      12.26823596       0.09737145
Ag      12.26918335       8.22574856       0.09304943
Ag       8.22574786      12.26918409       0.09304998
Ag       0.08460871      10.24655913      10.24655815
Ag       0.12052910      14.28431604      14.28431597
Ag       0.10554796      14.29400824      10.24745899
Ag       0.10554734      10.24745948      14.29400788
Ag       8.22531513       2.11003922      10.24428736
Ag      12.25941784       2.13733020      14.28303806
Ag       8.22886558       2.13192876      14.28689648
Ag      12.26394299       2.11754432      10.24490777
Ag       8.22531489      10.24428808       2.11004010
Ag      12.25941770      14.28303847       2.13733125
Ag      12.26394276      10.24490820       2.11754517
Ag       8.22886535      14.28689697       2.13192989
Ag       2.11004000       8.22531588      10.24428742
Ag       2.13733150      12.25941828      14.28303795
Ag       2.11754576      12.26394364      10.24490782
Ag       2.13192958       8.22886609      14.28689648
Ag      10.24655805       0.08460827      10.24655813
Ag      14.28431605       0.12052810      14.28431633
Ag      10.24745872       0.10554682      14.29400823
Ag      14.29400824       0.10554689      10.24745895
Ag      10.24428726       8.22531555       2.11003977
Ag      14.28303822      12.25941817       2.13733098
Ag      14.28689678       8.22886575       2.13192910
Ag      10.24490747      12.26394341       2.11754551
Ag       2.11004026      10.24428828       8.22531524
Ag       2.13733158      14.28303830      12.25941792
Ag       2.13193001      14.28689683       8.22886574
Ag       2.11754553      10.24490856      12.26394285
Ag      10.24428740       2.11003917       8.22531515
Ag      14.28303817       2.13733003      12.25941796
Ag      10.24490776       2.11754442      12.26394289
Ag      14.28689667       2.13192844       8.22886564
Ag      10.24655774      10.24655877       0.08460833
Ag      14.28431599      14.28431632       0.12052805
Ag      14.29400802      10.24745920       0.10554667
Ag      10.24745849      14.29400835       0.10554721
Ag       4.18604290       4.18604288       4.18604285
Ag      16.29267007      16.29266999      16.29267034
Ag      16.30804167      16.30804166       4.19448973
Ag       4.19382398       4.19382400      16.31956475
Ag      16.30804207       4.19448983      16.30804219
Ag       4.19382370      16.31956418       4.19382383
Ag       4.19449010      16.30804116      16.30804127
Ag      16.31956520       4.19382348       4.19382362
Ag       4.17324147       6.20799233       6.20799207
Ag      16.28369771      18.27309906      18.27309968
Ag      16.31054709      18.34665193       6.20048595
Ag       4.18288775       6.20743608      18.35787394
Ag      16.31054741       6.20048583      18.34665261
Ag       4.18288777      18.35787245       6.20743605
Ag       4.18037324      18.28376028      18.28376075
Ag      16.34470641       6.20900423       6.20900434
Ag       6.20799205       4.17324160       6.20799205
Ag      18.27309952      16.28369783      18.27310003
Ag      18.34665215      16.31054760       6.20048594
Ag       6.20743572       4.18288785      18.35787400
Ag      18.28376160       4.18037268      18.28376215
Ag       6.20900413      16.34470536       6.20900459
Ag       6.20048578      16.31054677      18.34665135
Ag      18.35787380       4.18288718       6.20743566
Ag       6.20799199       6.20799227       4.17324137
Ag      18.27309944      18.27309930      16.28369843
Ag      18.28376158      18.28376165       4.18037289
Ag       6.20900439       6.20900470      16.34470584
Ag      18.34665235       6.20048577      16.31054793
Ag       6.20743550      18.35787265       4.18288807
Ag       6.20048573      18.34665088      16.31054676
Ag      18.35787395       6.20743550       4.18288736
Ag       4.17582568       4.17582585       8.22742525
Ag      16.31485092      16.31485111      12.25746764
Ag      16.32092085      16.32092109       8.22235536
Ag       4.18149454       4.18149463      12.25590144
Ag      16.33227390       4.18656545      12.25941811
Ag       4.18270689      16.33767408       8.22886585
Ag       4.18656575      16.33227271      12.25941805
Ag      16.33767530       4.18270664       8.22886574
Ag       8.22742520       4.17582565       4.17582554
Ag      12.25746710      16.31485075      16.31485076
Ag       8.22235496      16.32092056      16.32092044
Ag      12.25590152       4.18149429       4.18149436
Ag      12.25941776      16.33227297       4.18656565
Ag       8.22886567       4.18270713      16.33767482
Ag      12.25941789       4.18656573      16.33227355
Ag       8.22886542      16.33767421       4.18270698
Ag       4.17582555       8.22742572       4.17582560
Ag      16.31485104      12.25746759      16.31485126
Ag      16.32092125       8.22235535      16.32092140
Ag       4.18149441      12.25590194       4.18149457
Ag       4.18656584      12.25941832      16.33227267
Ag      16.33767502       8.22886585       4.18270663
Ag      16.33227333      12.25941824       4.18656548
Ag       4.18270701       8.22886621      16.33767437
Ag       4.16747255       6.20647292      10.24192309
Ag      16.29803593      18.33770026      14.27573501
Ag      16.31366103      18.34898340      10.24461960
Ag       4.18149454       6.21370181      14.28810872
Ag      16.33227397       6.21018591      14.28303841
Ag       4.17559562      18.36405547      10.24745914
Ag       4.18528793      18.34907413      14.28431603
Ag      16.35205976       6.20566043      10.24490809
Ag       8.22560275       6.20128303       6.20128258
Ag      12.26999699      18.28601012      18.28601045
Ag       8.22073603      18.28993754      18.28993781
Ag      12.26527730       6.20432564       6.20432552
Ag      12.26823516      18.37223143       6.20136827
Ag       8.22574838       6.20042013      18.37655501
Ag      12.26823558       6.20136818      18.37223259
Ag       8.22574803      18.37655333       6.20042004
Ag       4.16747256      10.24192399       6.20647265
Ag      16.29803595      14.27573473      18.33770085
Ag      16.31366129      10.24461959      18.34898414
Ag       4.18149448      14.28810910       6.21370174
Ag       4.18528798      14.28431606      18.34907481
Ag      16.35205935      10.24490842       6.20566057
Ag      16.33227341      14.28303862       6.21018610
Ag       4.17559562      10.24745953      18.36405671
Ag       6.20647248       4.16747280      10.24192307
Ag      18.33770060      16.29803623      14.27573506
Ag      18.34898358      16.31366169      10.24461958
Ag       6.21370157       4.18149463      14.28810871
Ag      18.34907568       4.18528739      14.28431653
Ag       6.20566026      16.35205863      10.24490812
Ag       6.21018585      16.33227297      14.28303808
Ag      18.36405719       4.17559500      10.24745912
Ag      10.24192315       4.16747261       6.20647248
Ag      14.27573436      16.29803589      18.33770052
Ag      10.24461891      16.31366097      18.34898310
Ag      14.28810897       4.18149424       6.21370152
Ag      14.28303819      16.33227333       6.21018611
Ag      10.24745877       4.17559556      18.36405727
Ag      14.28431605       4.18528760      18.34907578
Ag      10.24490764      16.35205876       6.20566074
Ag       6.20128254       8.22560362       6.20128265
Ag      18.28601096      12.26999771      18.28601160
Ag      18.28993893       8.22073655      18.28993959
Ag       6.20432544      12.26527804       6.20432580
Ag       6.20136791      12.26823628      18.37223165
Ag      18.37655499       8.22574873       6.20041961
Ag      18.37223241      12.26823616       6.20136809
Ag       6.20041960       8.22574926      18.37655481
Ag       6.20128257       6.20128314       8.22560270
Ag      18.28601066      18.28601094      12.26999790
Ag      18.28993840      18.28993877       8.22073660
Ag       6.20432551       6.20432597      12.26527710
Ag      18.37223265       6.20136784      12.26823600
Ag       6.20041939      18.37655309       8.22574875
Ag       6.20136773      18.37223073      12.26823569
Ag      18.37655496       6.20041953       8.22574855
Ag      10.24192311       6.20647266       4.16747240
Ag      14.27573435      18.33770001      16.29803615
Ag      10.24461890      18.34898266      16.31366092
Ag      14.28810905       6.21370145       4.18149425
Ag      14.28431596      18.34907511       4.18528783
Ag      10.24490793       6.20566078      16.35205921
Ag      14.28303824       6.21018601      16.33227379
Ag      10.24745852      18.36405610       4.17559583
Ag       6.20647237      10.24192393       4.16747260
Ag      18.33770066      14.27573478      16.29803654
Ag      18.34898388      10.24461956      16.31366193
Ag       6.21370142      14.28810918       4.18149455
Ag       6.21018595      14.28303835      16.33227285
Ag      18.36405726      10.24745926       4.17559524
Ag      18.34907569      14.28431646       4.18528767
Ag       6.20566046      10.24490876      16.35205865
Ag       4.16040696       8.22581474       8.22581390
Ag      16.34470661      12.26059978      12.26059943
Ag      16.35205939      12.26394373       8.22469586
Ag       4.16747262       8.22768012      12.26313014
Ag      16.35205985       8.22469600      12.26394338
Ag       4.16747270      12.26313105       8.22767949
Ag       4.17324177      12.26161157      12.26161070
Ag      16.35956500       8.22531591       8.22531566
Ag       8.22581390       4.16040721       8.22581384
Ag      12.26059904      16.34470633      12.26059941
Ag       8.22469540      16.35205897      12.26394324
Ag      12.26313036       4.16747259       8.22767933
Ag      12.26394289      16.35205914       8.22469591
Ag       8.22767937       4.16747280      12.26313017
Ag      12.26161095       4.17324162      12.26161082
Ag       8.22531523      16.35956409       8.22531578
Ag       8.22581378       8.22581457       4.16040687
Ag      12.26059901      12.26059974      16.34470625
Ag      12.26394312       8.22469614      16.35205940
Ag       8.22767914      12.26313092       4.16747273
Ag       8.22469551      12.26394384      16.35205875
Ag      12.26313022       8.22767975       4.16747245
Ag      12.26161058      12.26161130       4.17324165
Ag       8.22531549       8.22531628      16.35956434
Ag       4.16040707      10.24378956      10.24378842
Ag      16.31956552      14.27578019      14.27578019
Ag      16.33767521      14.28689728      10.24073818
Ag       4.17582581      10.24217827      14.29377754
Ag      16.33767551      10.24073844      14.28689703
Ag       4.17582582      14.29377808      10.24217759
Ag       4.18604311      14.28356094      14.28356071
Ag      16.35956505      10.24428857      10.24428811
Ag       8.22506092       6.19852235      10.24454124
Ag      12.26216745      18.35787161      14.28671599
Ag       8.22214431      18.36405506      14.29400800
Ag      12.26832024       6.20128329      10.24399959
Ag      12.26918327      18.37655297      10.24385510
Ag       8.22767950       6.20647316      14.30213052
Ag      12.26161103       6.20799284      14.29636193
Ag       8.22304440      18.38499431      10.24655857
Ag       8.22506074      10.24454249       6.19852193
Ag      12.26216743      14.28671614      18.35787219
Ag      12.26918346      10.24385553      18.37655401
Ag       8.22767927      14.30213113       6.20647305
Ag       8.22214441      14.29400840      18.36405567
Ag      12.26831987      10.24400043       6.20128320
Ag      12.26161067      14.29636240       6.20799295
Ag       8.22304466      10.24655931      18.38499561
Ag       6.19852170       8.22506200      10.24454123
Ag      18.35787264      12.26216825      14.28671636
Ag      18.37655407      12.26918446      10.24385510
Ag       6.20647275       8.22768027      14.30213046
Ag      18.36405676       8.22214488      14.29400871
Ag       6.20128296      12.26832114      10.24399957
Ag       6.20799268      12.26161168      14.29636164
Ag      18.38499623       8.22304527      10.24655860
Ag      10.24378853       4.16040720      10.24378840
Ag      14.27577988      16.31956539      14.27578013
Ag      10.24073777      16.33767494      14.28689674
Ag      14.29377793       4.17582559      10.24217756
Ag      14.28689672      16.33767521      10.24073821
Ag      10.24217752       4.17582585      14.29377766
Ag      14.28356088       4.18604292      14.28356087
Ag      10.24428762      16.35956447      10.24428812
Ag      10.24454126       8.22506171       6.19852180
Ag      14.28671568      12.26216820      18.35787254
Ag      14.29400814       8.22214501      18.36405676
Ag      10.24399930      12.26832087       6.20128333
Ag      10.24385448      12.26918442      18.37655355
Ag      14.30213083       8.22767988       6.20647279
Ag      14.29636193      12.26161146       6.20799289
Ag      10.24655816       8.22304563      18.38499603
Ag       6.19852168      10.24454263       8.22506096
Ag      18.35787254      14.28671646      12.26216813
Ag      18.36405637      14.29400876       8.22214486
Ag       6.20128298      10.24400084      12.26831985
Ag      18.37655428      10.24385544      12.26918409
Ag       6.20647265      14.30213112       8.22767967
Ag       6.20799261      14.29636235      12.26161087
Ag      18.38499604      10.24655900       8.22304505
Ag      10.24454140       6.19852221       8.22506085
Ag      14.28671565      18.35787187      12.26216809
Ag      10.24385438      18.37655272      12.26918384
Ag      14.30213089       6.20647281       8.22767951
Ag      14.29400781      18.36405576       8.22214490
Ag      10.24399971       6.20128342      12.26831997
Ag      14.29636218       6.20799272      12.26161103
Ag      10.24655783      18.38499454       8.22304517
Ag      10.24378824      10.24378923       4.16040700
Ag      14.27577983      14.27578009      16.31956548
Ag      14.28689672      10.24073846      16.33767537
Ag      10.24217726      14.29377819       4.17582576
Ag      10.24073776      14.28689700      16.33767479
Ag      14.29377789      10.24217798       4.17582553
Ag      14.28356098      14.28356122       4.18604280
Ag      10.24428776      10.24428874      16.35956445
Ag       8.22390444       8.22390563       8.22390448
Ag      12.26527754      12.26527857      12.26527768
Ag      12.26831993      12.26832107       8.22560372
Ag       8.22506112       8.22506219      12.27108082
Ag      12.26832032       8.22560422      12.26832020
Ag       8.22506095      12.27108207       8.22506131
Ag       8.22560337      12.26832130      12.26832002
Ag      12.27108101       8.22506190       8.22506118
Ag       8.22390466      10.24569930      10.24569776
Ag      12.25590186      14.28810947      14.28810913
Ag      12.26313043      14.30213140      10.24192400
Ag       8.22581440      10.24378988      14.30919603
Ag      12.26313059      10.24192468      14.30213078
Ag       8.22581428      14.30919686      10.24378886
Ag       8.22742589      14.29377826      14.29377770
Ag      12.27108108      10.24454292      10.24454185
Ag      10.24569784       8.22390585      10.24569776
Ag      14.28810913      12.25590251      14.28810925
Ag      14.30213081      12.26313140      10.24192400
Ag      10.24378879       8.22581526      14.30919616
Ag      14.29377805       8.22742644      14.29377804
Ag      10.24454156      12.27108227      10.24454182
Ag      10.24192368      12.26313145      14.30213062
Ag      14.30919649       8.22581505      10.24378888
Ag      10.24569765      10.24569910       8.22390489
Ag      14.28810914      14.28810959      12.25590215
Ag      14.29377789      14.29377844       8.22742622
Ag      10.24454171      10.24454305      12.27108103
Ag      14.30213094      10.24192463      12.26313076
Ag      10.24378850      14.30919685       8.22581471
Ag      10.24192365      14.30213136      12.26313063
Ag      14.30919634      10.24378958       8.22581462
